data_TOHSAL_clean

_audit_creation_method RASPA-1.0
_audit_creation_date 2018-9-10
_audit_author_name '‡Å∑˝'

_cell_length_a    49.0934
_cell_length_b    49.0934
_cell_length_c    40.1403
_cell_angle_alpha 72.196
_cell_angle_beta  72.196
_cell_angle_gamma 90
_cell_volume      87232.3

_symmetry_cell_setting          triclinic
_symmetry_space_group_name_Hall 'P 1'
_symmetry_space_group_name_H-M  'P 1'
_symmetry_Int_Tables_number     1

_symmetry_equiv_pos_as_xyz 'x,y,z'

loop_
_atom_site_label
_atom_site_type_symbol
_atom_site_fract_x
_atom_site_fract_y
_atom_site_fract_z
_atom_site_charge
Cu       Cu     0.117940000000     0.280795000000     0.948100000000     0          
Cu       Cu     0.104885000000     0.482380000000     0.000240000000     0          
Cu       Cu     0.158010000000     0.245155000000     0.948100000000     0          
Cu       Cu     0.144995000000     0.017500000000     0.000240000000     0          
Cu       Cu     0.280795000000     0.158010000000     0.448100000000     0          
Cu       Cu     0.482380000000     0.144995000000     0.500240000000     0          
Cu       Cu     0.245155000000     0.117940000000     0.448100000000     0          
Cu       Cu     0.017500000000     0.104885000000     0.500240000000     0          
H        H      0.068750000000     0.073650000000     0.864600000000     0          
H        H      0.078050000000     0.037750000000     0.912600000000     0          
H        H      0.139500000000     0.092800000000     0.912800000000     0          
H        H      0.130150000000     0.128650000000     0.865000000000     0          
H        H      0.140900000000     0.198100000000     0.817800000000     0          
H        H      0.154300000000     0.215950000000     0.859000000000     0          
H        H      0.083850000000     0.259650000000     0.871400000000     0          
H        H      0.070450000000     0.241850000000     0.830200000000     0          
H        H      0.089600000000     0.247000000000     0.762400000000     0          
H        H      0.072850000000     0.135600000000     0.756200000000     0          
H        H      0.084500000000     0.099900000000     0.803400000000     0          
H        H      0.104700000000     0.160650000000     0.841400000000     0          
H        H      0.225000000000     0.186300000000     0.535000000000     0          
H        H      0.189700000000     0.193450000000     0.585000000000     0          
H        H      0.133600000000     0.135600000000     0.579600000000     0          
H        H      0.169000000000     0.128550000000     0.529400000000     0          
H        H      0.067450000000     0.124750000000     0.628400000000     0          
H        H      0.051100000000     0.112200000000     0.585600000000     0          
H        H      0.004000000000     0.180300000000     0.577000000000     0          
H        H      0.020350000000     0.192850000000     0.619800000000     0          
H        H      0.016100000000     0.172450000000     0.685600000000     0          
H        H      0.129050000000     0.188900000000     0.691600000000     0          
H        H      0.163500000000     0.177550000000     0.646000000000     0          
H        H      0.102550000000     0.164300000000     0.603000000000     0          
H        H      0.488750000000     0.165550000000     0.742000000000     0          
H        H      0.489250000000     0.199000000000     0.725200000000     0          
H        H      0.453850000000     0.181250000000     0.786200000000     0          
H        H      0.476950000000     0.203700000000     0.785400000000     0          
H        H      0.478500000000     0.170700000000     0.802800000000     0          
H        H      0.105950000000     0.272600000000     0.700000000000     0          
H        H      0.075100000000     0.276700000000     0.722000000000     0          
H        H      0.094800000000     0.314300000000     0.667400000000     0          
H        H      0.065600000000     0.300100000000     0.669000000000     0          
H        H      0.094800000000     0.293200000000     0.645000000000     0          
H        H      0.248950000000     0.494050000000     0.864600000000     0          
H        H      0.215650000000     0.005950000000     0.912600000000     0          
H        H      0.154100000000     0.450800000000     0.912800000000     0          
H        H      0.187350000000     0.438850000000     0.865000000000     0          
H        H      0.200200000000     0.393000000000     0.817800000000     0          
H        H      0.166200000000     0.354550000000     0.859000000000     0          
H        H      0.230450000000     0.304650000000     0.871400000000     0          
H        H      0.264450000000     0.343050000000     0.830200000000     0          
H        H      0.279200000000     0.371800000000     0.762400000000     0          
H        H      0.299050000000     0.486300000000     0.756200000000     0          
H        H      0.263800000000     0.498400000000     0.803400000000     0          
H        H      0.224600000000     0.418650000000     0.841400000000     0          
H        H      0.257500000000     0.046200000000     0.535000000000     0          
H        H      0.267800000000     0.014050000000     0.585000000000     0          
H        H      0.326600000000     0.074600000000     0.579600000000     0          
H        H      0.316300000000     0.106750000000     0.529400000000     0          
H        H      0.368350000000     0.061050000000     0.628400000000     0          
H        H      0.406100000000     0.095000000000     0.585600000000     0          
H        H      0.457500000000     0.031200000000     0.577000000000     0          
H        H      0.419750000000     0.497250000000     0.619800000000     0          
H        H      0.391100000000     0.484750000000     0.685600000000     0          
H        H      0.275150000000     0.465300000000     0.691600000000     0          
H        H      0.263500000000     0.499450000000     0.646000000000     0          
H        H      0.345950000000     0.034200000000     0.603000000000     0          
H        H      0.390250000000     0.463450000000     0.742000000000     0          
H        H      0.398150000000     0.438400000000     0.725200000000     0          
H        H      0.403050000000     0.425650000000     0.786200000000     0          
H        H      0.380350000000     0.403600000000     0.785400000000     0          
H        H      0.370100000000     0.427900000000     0.802800000000     0          
H        H      0.294050000000     0.377400000000     0.700000000000     0          
H        H      0.313900000000     0.362300000000     0.722000000000     0          
H        H      0.321500000000     0.352000000000     0.667400000000     0          
H        H      0.349900000000     0.365400000000     0.669000000000     0          
H        H      0.332700000000     0.384300000000     0.645000000000     0          
H        H      0.073650000000     0.248950000000     0.364600000000     0          
H        H      0.037750000000     0.215650000000     0.412600000000     0          
H        H      0.092800000000     0.154100000000     0.412800000000     0          
H        H      0.128650000000     0.187350000000     0.365000000000     0          
H        H      0.198100000000     0.200200000000     0.317800000000     0          
H        H      0.215950000000     0.166200000000     0.359000000000     0          
H        H      0.259650000000     0.230450000000     0.371400000000     0          
H        H      0.241850000000     0.264450000000     0.330200000000     0          
H        H      0.247000000000     0.279200000000     0.262400000000     0          
H        H      0.135600000000     0.299050000000     0.256200000000     0          
H        H      0.099900000000     0.263800000000     0.303400000000     0          
H        H      0.160650000000     0.224600000000     0.341400000000     0          
H        H      0.186300000000     0.257500000000     0.035000000000     0          
H        H      0.193450000000     0.267800000000     0.085000000000     0          
H        H      0.135600000000     0.326600000000     0.079600000000     0          
H        H      0.128550000000     0.316300000000     0.029400000000     0          
H        H      0.124750000000     0.368350000000     0.128400000000     0          
H        H      0.112200000000     0.406100000000     0.085600000000     0          
H        H      0.180300000000     0.457500000000     0.077000000000     0          
H        H      0.192850000000     0.419750000000     0.119800000000     0          
H        H      0.172450000000     0.391100000000     0.185600000000     0          
H        H      0.188900000000     0.275150000000     0.191600000000     0          
H        H      0.177550000000     0.263500000000     0.146000000000     0          
H        H      0.164300000000     0.345950000000     0.103000000000     0          
H        H      0.165550000000     0.390250000000     0.242000000000     0          
H        H      0.199000000000     0.398150000000     0.225200000000     0          
H        H      0.181250000000     0.403050000000     0.286200000000     0          
H        H      0.203700000000     0.380350000000     0.285400000000     0          
H        H      0.170700000000     0.370100000000     0.302800000000     0          
H        H      0.272600000000     0.294050000000     0.200000000000     0          
H        H      0.276700000000     0.313900000000     0.222000000000     0          
H        H      0.314300000000     0.321500000000     0.167400000000     0          
H        H      0.300100000000     0.349900000000     0.169000000000     0          
H        H      0.293200000000     0.332700000000     0.145000000000     0          
H        H      0.494050000000     0.068750000000     0.364600000000     0          
H        H      0.005950000000     0.078050000000     0.412600000000     0          
H        H      0.450800000000     0.139500000000     0.412800000000     0          
H        H      0.438850000000     0.130150000000     0.365000000000     0          
H        H      0.393000000000     0.140900000000     0.317800000000     0          
H        H      0.354550000000     0.154300000000     0.359000000000     0          
H        H      0.304650000000     0.083850000000     0.371400000000     0          
H        H      0.343050000000     0.070450000000     0.330200000000     0          
H        H      0.371800000000     0.089600000000     0.262400000000     0          
H        H      0.486300000000     0.072850000000     0.256200000000     0          
H        H      0.498400000000     0.084500000000     0.303400000000     0          
H        H      0.418650000000     0.104700000000     0.341400000000     0          
H        H      0.046200000000     0.225000000000     0.035000000000     0          
H        H      0.014050000000     0.189700000000     0.085000000000     0          
H        H      0.074600000000     0.133600000000     0.079600000000     0          
H        H      0.106750000000     0.169000000000     0.029400000000     0          
H        H      0.061050000000     0.067450000000     0.128400000000     0          
H        H      0.095000000000     0.051100000000     0.085600000000     0          
H        H      0.031200000000     0.004000000000     0.077000000000     0          
H        H      0.497250000000     0.020350000000     0.119800000000     0          
H        H      0.484750000000     0.016100000000     0.185600000000     0          
H        H      0.465300000000     0.129050000000     0.191600000000     0          
H        H      0.499450000000     0.163500000000     0.146000000000     0          
H        H      0.034200000000     0.102550000000     0.103000000000     0          
H        H      0.463450000000     0.488750000000     0.242000000000     0          
H        H      0.438400000000     0.489250000000     0.225200000000     0          
H        H      0.425650000000     0.453850000000     0.286200000000     0          
H        H      0.403600000000     0.476950000000     0.285400000000     0          
H        H      0.427900000000     0.478500000000     0.302800000000     0          
H        H      0.377400000000     0.105950000000     0.200000000000     0          
H        H      0.362300000000     0.075100000000     0.222000000000     0          
H        H      0.352000000000     0.094800000000     0.167400000000     0          
H        H      0.365400000000     0.065600000000     0.169000000000     0          
H        H      0.384300000000     0.094800000000     0.145000000000     0          
C        C      0.098475000000     0.104825000000     0.859900000000     0          
C        C      0.082805000000     0.077440000000     0.874240000000     0          
C        C      0.088425000000     0.055825000000     0.903100000000     0          
C        C      0.109745000000     0.061595000000     0.917620000000     0          
C        C      0.125420000000     0.088980000000     0.903280000000     0          
C        C      0.119795000000     0.110595000000     0.874420000000     0          
C        C      0.121125000000     0.245175000000     0.903300000000     0          
C        C      0.104295000000     0.218145000000     0.819820000000     0          
C        C      0.129590000000     0.210335000000     0.828440000000     0          
C        C      0.137655000000     0.221095000000     0.853220000000     0          
C        C      0.120460000000     0.239660000000     0.869360000000     0          
C        C      0.095165000000     0.247430000000     0.860740000000     0          
C        C      0.087090000000     0.236655000000     0.835980000000     0          
C        C      0.225140000000     0.149540000000     0.498640000000     0          
C        C      0.077605000000     0.190305000000     0.739980000000     0          
C        C      0.079375000000     0.219475000000     0.737900000000     0          
C        C      0.088450000000     0.227770000000     0.763800000000     0          
C        C      0.095805000000     0.206855000000     0.791780000000     0          
C        C      0.094030000000     0.177680000000     0.793880000000     0          
C        C      0.084960000000     0.169425000000     0.767960000000     0          
C        C      0.080035000000     0.140935000000     0.772460000000     0          
C        C      0.085840000000     0.119190000000     0.801840000000     0          
C        C      0.093605000000     0.127755000000     0.827780000000     0          
C        C      0.098425000000     0.155675000000     0.824100000000     0          
C        C      0.200640000000     0.156690000000     0.527040000000     0          
C        C      0.206875000000     0.176255000000     0.543780000000     0          
C        C      0.185555000000     0.180555000000     0.573980000000     0          
C        C      0.158040000000     0.165290000000     0.587440000000     0          
C        C      0.151790000000     0.145725000000     0.570700000000     0          
C        C      0.173075000000     0.141425000000     0.540500000000     0          
C        C      0.013495000000     0.135645000000     0.549620000000     0          
C        C      0.045565000000     0.160065000000     0.628540000000     0          
C        C      0.054845000000     0.135795000000     0.618220000000     0          
C        C      0.045000000000     0.128200000000     0.592400000000     0          
C        C      0.025880000000     0.144980000000     0.576880000000     0          
C        C      0.016625000000     0.169255000000     0.587180000000     0          
C        C      0.026445000000     0.176795000000     0.613020000000     0          
C        C      0.111910000000     0.042560000000     0.950160000000     0          
C        C      0.072620000000     0.184820000000     0.708120000000     0          
C        C      0.043420000000     0.182370000000     0.710520000000     0          
C        C      0.035385000000     0.174070000000     0.683920000000     0          
C        C      0.056575000000     0.168125000000     0.654900000000     0          
C        C      0.085780000000     0.170530000000     0.652480000000     0          
C        C      0.093810000000     0.178875000000     0.679100000000     0          
C        C      0.123575000000     0.182425000000     0.674900000000     0          
C        C      0.144295000000     0.176695000000     0.647220000000     0          
C        C      0.135765000000     0.169365000000     0.620340000000     0          
C        C      0.107460000000     0.167560000000     0.622160000000     0          
C        C      0.493350000000     0.183850000000     0.744600000000     0          
C        C      0.473700000000     0.185000000000     0.783600000000     0          
C        C      0.086150000000     0.272100000000     0.700200000000     0          
C        C      0.085250000000     0.297200000000     0.667400000000     0          
C        C      0.221575000000     0.465225000000     0.859900000000     0          
C        C      0.230075000000     0.485440000000     0.874240000000     0          
C        C      0.210025000000     0.492625000000     0.903100000000     0          
C        C      0.181445000000     0.479595000000     0.917620000000     0          
C        C      0.172940000000     0.459380000000     0.903280000000     0          
C        C      0.192995000000     0.452195000000     0.874420000000     0          
C        C      0.177225000000     0.303175000000     0.903300000000     0          
C        C      0.235795000000     0.371945000000     0.819820000000     0          
C        C      0.206190000000     0.375445000000     0.828440000000     0          
C        C      0.185735000000     0.352295000000     0.853220000000     0          
C        C      0.194860000000     0.325660000000     0.869360000000     0          
C        C      0.224465000000     0.322200000000     0.860740000000     0          
C        C      0.244920000000     0.345355000000     0.835980000000     0          
C        C      0.275540000000     0.101140000000     0.498640000000     0          
C        C      0.302405000000     0.439705000000     0.739980000000     0          
C        C      0.301675000000     0.411575000000     0.737900000000     0          
C        C      0.279650000000     0.390330000000     0.763800000000     0          
C        C      0.258305000000     0.397255000000     0.791780000000     0          
C        C      0.259030000000     0.425380000000     0.793880000000     0          
C        C      0.281060000000     0.446595000000     0.767960000000     0          
C        C      0.283735000000     0.472835000000     0.772460000000     0          
C        C      0.263240000000     0.479890000000     0.801840000000     0          
C        C      0.242505000000     0.458355000000     0.827780000000     0          
C        C      0.239525000000     0.432275000000     0.824100000000     0          
C        C      0.285840000000     0.079790000000     0.527040000000     0          
C        C      0.271235000000     0.051855000000     0.543780000000     0          
C        C      0.277455000000     0.032455000000     0.573980000000     0          
C        C      0.298240000000     0.040990000000     0.587440000000     0          
C        C      0.312860000000     0.068925000000     0.570700000000     0          
C        C      0.306675000000     0.088325000000     0.540500000000     0          
C        C      0.461695000000     0.089545000000     0.549620000000     0          
C        C      0.390165000000     0.025665000000     0.628540000000     0          
C        C      0.386045000000     0.055095000000     0.618220000000     0          
C        C      0.408800000000     0.075600000000     0.592400000000     0          
C        C      0.435680000000     0.066580000000     0.576880000000     0          
C        C      0.439785000000     0.037155000000     0.587180000000     0          
C        C      0.417045000000     0.016695000000     0.613020000000     0          
C        C      0.163010000000     0.482360000000     0.950160000000     0          
C        C      0.323320000000     0.461120000000     0.708120000000     0          
C        C      0.351320000000     0.462370000000     0.710520000000     0          
C        C      0.372655000000     0.483970000000     0.683920000000     0          
C        C      0.365975000000     0.004425000000     0.654900000000     0          
C        C      0.337980000000     0.003230000000     0.652480000000     0          
C        C      0.316640000000     0.481575000000     0.679100000000     0          
C        C      0.288975000000     0.480125000000     0.674900000000     0          
C        C      0.282095000000     0.499695000000     0.647220000000     0          
C        C      0.304065000000     0.020465000000     0.620340000000     0          
C        C      0.331460000000     0.021360000000     0.622160000000     0          
C        C      0.384350000000     0.443850000000     0.744600000000     0          
C        C      0.384500000000     0.423200000000     0.783600000000     0          
C        C      0.313750000000     0.377800000000     0.700200000000     0          
C        C      0.331050000000     0.369100000000     0.667400000000     0          
C        C      0.104825000000     0.221575000000     0.359900000000     0          
C        C      0.077440000000     0.230075000000     0.374240000000     0          
C        C      0.055825000000     0.210025000000     0.403100000000     0          
C        C      0.061595000000     0.181445000000     0.417620000000     0          
C        C      0.088980000000     0.172940000000     0.403280000000     0          
C        C      0.110595000000     0.192995000000     0.374420000000     0          
C        C      0.245175000000     0.177225000000     0.403300000000     0          
C        C      0.218145000000     0.235795000000     0.319820000000     0          
C        C      0.210335000000     0.206190000000     0.328440000000     0          
C        C      0.221095000000     0.185735000000     0.353220000000     0          
C        C      0.239660000000     0.194860000000     0.369360000000     0          
C        C      0.247430000000     0.224465000000     0.360740000000     0          
C        C      0.236655000000     0.244920000000     0.335980000000     0          
C        C      0.149540000000     0.275540000000     0.998640000000     0          
C        C      0.190305000000     0.302405000000     0.239980000000     0          
C        C      0.219475000000     0.301675000000     0.237900000000     0          
C        C      0.227770000000     0.279650000000     0.263800000000     0          
C        C      0.206855000000     0.258305000000     0.291780000000     0          
C        C      0.177680000000     0.259030000000     0.293880000000     0          
C        C      0.169425000000     0.281060000000     0.267960000000     0          
C        C      0.140935000000     0.283735000000     0.272460000000     0          
C        C      0.119190000000     0.263240000000     0.301840000000     0          
C        C      0.127755000000     0.242505000000     0.327780000000     0          
C        C      0.155675000000     0.239525000000     0.324100000000     0          
C        C      0.156690000000     0.285840000000     0.027040000000     0          
C        C      0.176255000000     0.271235000000     0.043780000000     0          
C        C      0.180555000000     0.277455000000     0.073980000000     0          
C        C      0.165290000000     0.298240000000     0.087440000000     0          
C        C      0.145725000000     0.312860000000     0.070700000000     0          
C        C      0.141425000000     0.306675000000     0.040500000000     0          
C        C      0.135645000000     0.461695000000     0.049620000000     0          
C        C      0.160065000000     0.390165000000     0.128540000000     0          
C        C      0.135795000000     0.386045000000     0.118220000000     0          
C        C      0.128200000000     0.408800000000     0.092400000000     0          
C        C      0.144980000000     0.435680000000     0.076880000000     0          
C        C      0.169255000000     0.439785000000     0.087180000000     0          
C        C      0.176795000000     0.417045000000     0.113020000000     0          
C        C      0.042560000000     0.163010000000     0.450160000000     0          
C        C      0.184820000000     0.323320000000     0.208120000000     0          
C        C      0.182370000000     0.351320000000     0.210520000000     0          
C        C      0.174070000000     0.372655000000     0.183920000000     0          
C        C      0.168125000000     0.365975000000     0.154900000000     0          
C        C      0.170530000000     0.337980000000     0.152480000000     0          
C        C      0.178875000000     0.316640000000     0.179100000000     0          
C        C      0.182425000000     0.288975000000     0.174900000000     0          
C        C      0.176695000000     0.282095000000     0.147220000000     0          
C        C      0.169365000000     0.304065000000     0.120340000000     0          
C        C      0.167560000000     0.331460000000     0.122160000000     0          
C        C      0.183850000000     0.384350000000     0.244600000000     0          
C        C      0.185000000000     0.384500000000     0.283600000000     0          
C        C      0.272100000000     0.313750000000     0.200200000000     0          
C        C      0.297200000000     0.331050000000     0.167400000000     0          
C        C      0.465225000000     0.098475000000     0.359900000000     0          
C        C      0.485440000000     0.082805000000     0.374240000000     0          
C        C      0.492625000000     0.088425000000     0.403100000000     0          
C        C      0.479595000000     0.109745000000     0.417620000000     0          
C        C      0.459380000000     0.125420000000     0.403280000000     0          
C        C      0.452195000000     0.119795000000     0.374420000000     0          
C        C      0.303175000000     0.121125000000     0.403300000000     0          
C        C      0.371945000000     0.104295000000     0.319820000000     0          
C        C      0.375445000000     0.129590000000     0.328440000000     0          
C        C      0.352295000000     0.137655000000     0.353220000000     0          
C        C      0.325660000000     0.120460000000     0.369360000000     0          
C        C      0.322200000000     0.095165000000     0.360740000000     0          
C        C      0.345355000000     0.087090000000     0.335980000000     0          
C        C      0.101140000000     0.225140000000     0.998640000000     0          
C        C      0.439705000000     0.077605000000     0.239980000000     0          
C        C      0.411575000000     0.079375000000     0.237900000000     0          
C        C      0.390330000000     0.088450000000     0.263800000000     0          
C        C      0.397255000000     0.095805000000     0.291780000000     0          
C        C      0.425380000000     0.094030000000     0.293880000000     0          
C        C      0.446595000000     0.084960000000     0.267960000000     0          
C        C      0.472835000000     0.080035000000     0.272460000000     0          
C        C      0.479890000000     0.085840000000     0.301840000000     0          
C        C      0.458355000000     0.093605000000     0.327780000000     0          
C        C      0.432275000000     0.098425000000     0.324100000000     0          
C        C      0.079790000000     0.200640000000     0.027040000000     0          
C        C      0.051855000000     0.206875000000     0.043780000000     0          
C        C      0.032455000000     0.185555000000     0.073980000000     0          
C        C      0.040990000000     0.158040000000     0.087440000000     0          
C        C      0.068925000000     0.151790000000     0.070700000000     0          
C        C      0.088325000000     0.173075000000     0.040500000000     0          
C        C      0.089545000000     0.013495000000     0.049620000000     0          
C        C      0.025665000000     0.045565000000     0.128540000000     0          
C        C      0.055095000000     0.054845000000     0.118220000000     0          
C        C      0.075600000000     0.045000000000     0.092400000000     0          
C        C      0.066580000000     0.025880000000     0.076880000000     0          
C        C      0.037155000000     0.016625000000     0.087180000000     0          
C        C      0.016695000000     0.026445000000     0.113020000000     0          
C        C      0.482360000000     0.111910000000     0.450160000000     0          
C        C      0.461120000000     0.072620000000     0.208120000000     0          
C        C      0.462370000000     0.043420000000     0.210520000000     0          
C        C      0.483970000000     0.035385000000     0.183920000000     0          
C        C      0.004425000000     0.056575000000     0.154900000000     0          
C        C      0.003230000000     0.085780000000     0.152480000000     0          
C        C      0.481575000000     0.093810000000     0.179100000000     0          
C        C      0.480125000000     0.123575000000     0.174900000000     0          
C        C      0.499695000000     0.144295000000     0.147220000000     0          
C        C      0.020465000000     0.135765000000     0.120340000000     0          
C        C      0.021360000000     0.107460000000     0.122160000000     0          
C        C      0.443850000000     0.493350000000     0.244600000000     0          
C        C      0.423200000000     0.473700000000     0.283600000000     0          
C        C      0.377800000000     0.086150000000     0.200200000000     0          
C        C      0.369100000000     0.085250000000     0.167400000000     0          
O        O      0.111495000000     0.265695000000     0.911420000000     0          
O        O      0.248635000000     0.163985000000     0.488260000000     0          
O        O      0.099470000000     0.015070000000     0.961320000000     0          
O        O      0.496140000000     0.152440000000     0.538240000000     0          
O        O      0.025575000000     0.117025000000     0.538700000000     0          
O        O      0.133605000000     0.045705000000     0.962980000000     0          
O        O      0.146385000000     0.236405000000     0.910260000000     0          
O        O      0.217045000000     0.131745000000     0.487220000000     0          
O        O      0.076710000000     0.241010000000     0.707360000000     0          
O        O      0.024735000000     0.187435000000     0.740260000000     0          
O        O      0.182795000000     0.278595000000     0.911420000000     0          
O        O      0.257235000000     0.091885000000     0.488260000000     0          
O        O      0.169870000000     0.004270000000     0.961320000000     0          
O        O      0.484740000000     0.078440000000     0.538240000000     0          
O        O      0.455075000000     0.113625000000     0.538700000000     0          
O        O      0.134905000000     0.472805000000     0.962980000000     0          
O        O      0.148485000000     0.308465000000     0.910260000000     0          
O        O      0.289345000000     0.124645000000     0.487220000000     0          
O        O      0.319610000000     0.405310000000     0.707360000000     0          
O        O      0.355135000000     0.442435000000     0.740260000000     0          
O        O      0.265695000000     0.182795000000     0.411420000000     0          
O        O      0.163985000000     0.257235000000     0.988260000000     0          
O        O      0.015070000000     0.169870000000     0.461320000000     0          
O        O      0.152440000000     0.484740000000     0.038240000000     0          
O        O      0.117025000000     0.455075000000     0.038700000000     0          
O        O      0.045705000000     0.134905000000     0.462980000000     0          
O        O      0.236405000000     0.148485000000     0.410260000000     0          
O        O      0.131745000000     0.289345000000     0.987220000000     0          
O        O      0.241010000000     0.319610000000     0.207360000000     0          
O        O      0.187435000000     0.355135000000     0.240260000000     0          
O        O      0.278595000000     0.111495000000     0.411420000000     0          
O        O      0.091885000000     0.248635000000     0.988260000000     0          
O        O      0.004270000000     0.099470000000     0.461320000000     0          
O        O      0.078440000000     0.496140000000     0.038240000000     0          
O        O      0.113625000000     0.025575000000     0.038700000000     0          
O        O      0.472805000000     0.133605000000     0.462980000000     0          
O        O      0.308465000000     0.146385000000     0.410260000000     0          
O        O      0.124645000000     0.217045000000     0.987220000000     0          
O        O      0.405310000000     0.076710000000     0.207360000000     0          
O        O      0.442435000000     0.024735000000     0.240260000000     0          
Cu       Cu     0.382060000000     0.219205000000     0.051900000000     0          
Cu       Cu     0.395115000000     0.017620000000     0.999760000000     0          
Cu       Cu     0.341990000000     0.254845000000     0.051900000000     0          
Cu       Cu     0.355005000000     0.482500000000     0.999760000000     0          
Cu       Cu     0.219205000000     0.341990000000     0.551900000000     0          
Cu       Cu     0.017620000000     0.355005000000     0.499760000000     0          
Cu       Cu     0.254845000000     0.382060000000     0.551900000000     0          
Cu       Cu     0.482500000000     0.395115000000     0.499760000000     0          
H        H      0.431250000000     0.426350000000     0.135400000000     0          
H        H      0.421950000000     0.462250000000     0.087400000000     0          
H        H      0.360500000000     0.407200000000     0.087200000000     0          
H        H      0.369850000000     0.371350000000     0.135000000000     0          
H        H      0.359100000000     0.301900000000     0.182200000000     0          
H        H      0.345700000000     0.284050000000     0.141000000000     0          
H        H      0.416150000000     0.240350000000     0.128600000000     0          
H        H      0.429550000000     0.258150000000     0.169800000000     0          
H        H      0.410400000000     0.253000000000     0.237600000000     0          
H        H      0.427150000000     0.364400000000     0.243800000000     0          
H        H      0.415500000000     0.400100000000     0.196600000000     0          
H        H      0.395300000000     0.339350000000     0.158600000000     0          
H        H      0.275000000000     0.313700000000     0.465000000000     0          
H        H      0.310300000000     0.306550000000     0.415000000000     0          
H        H      0.366400000000     0.364400000000     0.420400000000     0          
H        H      0.331000000000     0.371450000000     0.470600000000     0          
H        H      0.432550000000     0.375250000000     0.371600000000     0          
H        H      0.448900000000     0.387800000000     0.414400000000     0          
H        H      0.496000000000     0.319700000000     0.423000000000     0          
H        H      0.479650000000     0.307150000000     0.380200000000     0          
H        H      0.483900000000     0.327550000000     0.314400000000     0          
H        H      0.370950000000     0.311100000000     0.308400000000     0          
H        H      0.336500000000     0.322450000000     0.354000000000     0          
H        H      0.397450000000     0.335700000000     0.397000000000     0          
H        H      0.011250000000     0.334450000000     0.258000000000     0          
H        H      0.010750000000     0.301000000000     0.274800000000     0          
H        H      0.046150000000     0.318750000000     0.213800000000     0          
H        H      0.023050000000     0.296300000000     0.214600000000     0          
H        H      0.021500000000     0.329300000000     0.197200000000     0          
H        H      0.394050000000     0.227400000000     0.300000000000     0          
H        H      0.424900000000     0.223300000000     0.278000000000     0          
H        H      0.405200000000     0.185700000000     0.332600000000     0          
H        H      0.434400000000     0.199900000000     0.331000000000     0          
H        H      0.405200000000     0.206800000000     0.355000000000     0          
H        H      0.251050000000     0.005950000000     0.135400000000     0          
H        H      0.284350000000     0.494050000000     0.087400000000     0          
H        H      0.345900000000     0.049200000000     0.087200000000     0          
H        H      0.312650000000     0.061150000000     0.135000000000     0          
H        H      0.299800000000     0.107000000000     0.182200000000     0          
H        H      0.333800000000     0.145450000000     0.141000000000     0          
H        H      0.269550000000     0.195350000000     0.128600000000     0          
H        H      0.235550000000     0.156950000000     0.169800000000     0          
H        H      0.220800000000     0.128200000000     0.237600000000     0          
H        H      0.200950000000     0.013700000000     0.243800000000     0          
H        H      0.236200000000     0.001600000000     0.196600000000     0          
H        H      0.275400000000     0.081350000000     0.158600000000     0          
H        H      0.242500000000     0.453800000000     0.465000000000     0          
H        H      0.232200000000     0.485950000000     0.415000000000     0          
H        H      0.173400000000     0.425400000000     0.420400000000     0          
H        H      0.183700000000     0.393250000000     0.470600000000     0          
H        H      0.131650000000     0.438950000000     0.371600000000     0          
H        H      0.093900000000     0.405000000000     0.414400000000     0          
H        H      0.042500000000     0.468800000000     0.423000000000     0          
H        H      0.080250000000     0.002750000000     0.380200000000     0          
H        H      0.108900000000     0.015250000000     0.314400000000     0          
H        H      0.224850000000     0.034700000000     0.308400000000     0          
H        H      0.236500000000     0.000550000000     0.354000000000     0          
H        H      0.154050000000     0.465800000000     0.397000000000     0          
H        H      0.109750000000     0.036550000000     0.258000000000     0          
H        H      0.101850000000     0.061600000000     0.274800000000     0          
H        H      0.096950000000     0.074350000000     0.213800000000     0          
H        H      0.119650000000     0.096400000000     0.214600000000     0          
H        H      0.129900000000     0.072100000000     0.197200000000     0          
H        H      0.205950000000     0.122600000000     0.300000000000     0          
H        H      0.186100000000     0.137700000000     0.278000000000     0          
H        H      0.178500000000     0.148000000000     0.332600000000     0          
H        H      0.150100000000     0.134600000000     0.331000000000     0          
H        H      0.167300000000     0.115700000000     0.355000000000     0          
H        H      0.426350000000     0.251050000000     0.635400000000     0          
H        H      0.462250000000     0.284350000000     0.587400000000     0          
H        H      0.407200000000     0.345900000000     0.587200000000     0          
H        H      0.371350000000     0.312650000000     0.635000000000     0          
H        H      0.301900000000     0.299800000000     0.682200000000     0          
H        H      0.284050000000     0.333800000000     0.641000000000     0          
H        H      0.240350000000     0.269550000000     0.628600000000     0          
H        H      0.258150000000     0.235550000000     0.669800000000     0          
H        H      0.253000000000     0.220800000000     0.737600000000     0          
H        H      0.364400000000     0.200950000000     0.743800000000     0          
H        H      0.400100000000     0.236200000000     0.696600000000     0          
H        H      0.339350000000     0.275400000000     0.658600000000     0          
H        H      0.313700000000     0.242500000000     0.965000000000     0          
H        H      0.306550000000     0.232200000000     0.915000000000     0          
H        H      0.364400000000     0.173400000000     0.920400000000     0          
H        H      0.371450000000     0.183700000000     0.970600000000     0          
H        H      0.375250000000     0.131650000000     0.871600000000     0          
H        H      0.387800000000     0.093900000000     0.914400000000     0          
H        H      0.319700000000     0.042500000000     0.923000000000     0          
H        H      0.307150000000     0.080250000000     0.880200000000     0          
H        H      0.327550000000     0.108900000000     0.814400000000     0          
H        H      0.311100000000     0.224850000000     0.808400000000     0          
H        H      0.322450000000     0.236500000000     0.854000000000     0          
H        H      0.335700000000     0.154050000000     0.897000000000     0          
H        H      0.334450000000     0.109750000000     0.758000000000     0          
H        H      0.301000000000     0.101850000000     0.774800000000     0          
H        H      0.318750000000     0.096950000000     0.713800000000     0          
H        H      0.296300000000     0.119650000000     0.714600000000     0          
H        H      0.329300000000     0.129900000000     0.697200000000     0          
H        H      0.227400000000     0.205950000000     0.800000000000     0          
H        H      0.223300000000     0.186100000000     0.778000000000     0          
H        H      0.185700000000     0.178500000000     0.832600000000     0          
H        H      0.199900000000     0.150100000000     0.831000000000     0          
H        H      0.206800000000     0.167300000000     0.855000000000     0          
H        H      0.005950000000     0.431250000000     0.635400000000     0          
H        H      0.494050000000     0.421950000000     0.587400000000     0          
H        H      0.049200000000     0.360500000000     0.587200000000     0          
H        H      0.061150000000     0.369850000000     0.635000000000     0          
H        H      0.107000000000     0.359100000000     0.682200000000     0          
H        H      0.145450000000     0.345700000000     0.641000000000     0          
H        H      0.195350000000     0.416150000000     0.628600000000     0          
H        H      0.156950000000     0.429550000000     0.669800000000     0          
H        H      0.128200000000     0.410400000000     0.737600000000     0          
H        H      0.013700000000     0.427150000000     0.743800000000     0          
H        H      0.001600000000     0.415500000000     0.696600000000     0          
H        H      0.081350000000     0.395300000000     0.658600000000     0          
H        H      0.453800000000     0.275000000000     0.965000000000     0          
H        H      0.485950000000     0.310300000000     0.915000000000     0          
H        H      0.425400000000     0.366400000000     0.920400000000     0          
H        H      0.393250000000     0.331000000000     0.970600000000     0          
H        H      0.438950000000     0.432550000000     0.871600000000     0          
H        H      0.405000000000     0.448900000000     0.914400000000     0          
H        H      0.468800000000     0.496000000000     0.923000000000     0          
H        H      0.002750000000     0.479650000000     0.880200000000     0          
H        H      0.015250000000     0.483900000000     0.814400000000     0          
H        H      0.034700000000     0.370950000000     0.808400000000     0          
H        H      0.000550000000     0.336500000000     0.854000000000     0          
H        H      0.465800000000     0.397450000000     0.897000000000     0          
H        H      0.036550000000     0.011250000000     0.758000000000     0          
H        H      0.061600000000     0.010750000000     0.774800000000     0          
H        H      0.074350000000     0.046150000000     0.713800000000     0          
H        H      0.096400000000     0.023050000000     0.714600000000     0          
H        H      0.072100000000     0.021500000000     0.697200000000     0          
H        H      0.122600000000     0.394050000000     0.800000000000     0          
H        H      0.137700000000     0.424900000000     0.778000000000     0          
H        H      0.148000000000     0.405200000000     0.832600000000     0          
H        H      0.134600000000     0.434400000000     0.831000000000     0          
H        H      0.115700000000     0.405200000000     0.855000000000     0          
C        C      0.401525000000     0.395175000000     0.140100000000     0          
C        C      0.417195000000     0.422560000000     0.125760000000     0          
C        C      0.411575000000     0.444175000000     0.096900000000     0          
C        C      0.390255000000     0.438405000000     0.082380000000     0          
C        C      0.374580000000     0.411020000000     0.096720000000     0          
C        C      0.380205000000     0.389405000000     0.125580000000     0          
C        C      0.378875000000     0.254825000000     0.096700000000     0          
C        C      0.395705000000     0.281855000000     0.180180000000     0          
C        C      0.370410000000     0.289665000000     0.171560000000     0          
C        C      0.362345000000     0.278905000000     0.146780000000     0          
C        C      0.379540000000     0.260340000000     0.130640000000     0          
C        C      0.404835000000     0.252570000000     0.139260000000     0          
C        C      0.412910000000     0.263345000000     0.164020000000     0          
C        C      0.274860000000     0.350460000000     0.501360000000     0          
C        C      0.422395000000     0.309695000000     0.260020000000     0          
C        C      0.420625000000     0.280525000000     0.262100000000     0          
C        C      0.411550000000     0.272230000000     0.236200000000     0          
C        C      0.404195000000     0.293145000000     0.208220000000     0          
C        C      0.405970000000     0.322320000000     0.206120000000     0          
C        C      0.415040000000     0.330575000000     0.232040000000     0          
C        C      0.419965000000     0.359065000000     0.227540000000     0          
C        C      0.414160000000     0.380810000000     0.198160000000     0          
C        C      0.406395000000     0.372245000000     0.172220000000     0          
C        C      0.401575000000     0.344325000000     0.175900000000     0          
C        C      0.299360000000     0.343310000000     0.472960000000     0          
C        C      0.293125000000     0.323745000000     0.456220000000     0          
C        C      0.314445000000     0.319445000000     0.426020000000     0          
C        C      0.341960000000     0.334710000000     0.412560000000     0          
C        C      0.348210000000     0.354275000000     0.429300000000     0          
C        C      0.326925000000     0.358575000000     0.459500000000     0          
C        C      0.486505000000     0.364355000000     0.450380000000     0          
C        C      0.454435000000     0.339935000000     0.371460000000     0          
C        C      0.445155000000     0.364205000000     0.381780000000     0          
C        C      0.455000000000     0.371800000000     0.407600000000     0          
C        C      0.474120000000     0.355020000000     0.423120000000     0          
C        C      0.483375000000     0.330745000000     0.412820000000     0          
C        C      0.473555000000     0.323205000000     0.386980000000     0          
C        C      0.388090000000     0.457440000000     0.049840000000     0          
C        C      0.427380000000     0.315180000000     0.291880000000     0          
C        C      0.456580000000     0.317630000000     0.289480000000     0          
C        C      0.464615000000     0.325930000000     0.316080000000     0          
C        C      0.443425000000     0.331875000000     0.345100000000     0          
C        C      0.414220000000     0.329470000000     0.347520000000     0          
C        C      0.406190000000     0.321125000000     0.320900000000     0          
C        C      0.376425000000     0.317575000000     0.325100000000     0          
C        C      0.355705000000     0.323305000000     0.352780000000     0          
C        C      0.364235000000     0.330635000000     0.379660000000     0          
C        C      0.392540000000     0.332440000000     0.377840000000     0          
C        C      0.006650000000     0.316150000000     0.255400000000     0          
C        C      0.026300000000     0.315000000000     0.216400000000     0          
C        C      0.413850000000     0.227900000000     0.299800000000     0          
C        C      0.414750000000     0.202800000000     0.332600000000     0          
C        C      0.278425000000     0.034775000000     0.140100000000     0          
C        C      0.269925000000     0.014560000000     0.125760000000     0          
C        C      0.289975000000     0.007375000000     0.096900000000     0          
C        C      0.318555000000     0.020405000000     0.082380000000     0          
C        C      0.327060000000     0.040620000000     0.096720000000     0          
C        C      0.307005000000     0.047805000000     0.125580000000     0          
C        C      0.322775000000     0.196825000000     0.096700000000     0          
C        C      0.264205000000     0.128055000000     0.180180000000     0          
C        C      0.293810000000     0.124555000000     0.171560000000     0          
C        C      0.314265000000     0.147705000000     0.146780000000     0          
C        C      0.305140000000     0.174340000000     0.130640000000     0          
C        C      0.275535000000     0.177800000000     0.139260000000     0          
C        C      0.255080000000     0.154645000000     0.164020000000     0          
C        C      0.224460000000     0.398860000000     0.501360000000     0          
C        C      0.197595000000     0.060295000000     0.260020000000     0          
C        C      0.198325000000     0.088425000000     0.262100000000     0          
C        C      0.220350000000     0.109670000000     0.236200000000     0          
C        C      0.241695000000     0.102745000000     0.208220000000     0          
C        C      0.240970000000     0.074620000000     0.206120000000     0          
C        C      0.218940000000     0.053405000000     0.232040000000     0          
C        C      0.216265000000     0.027165000000     0.227540000000     0          
C        C      0.236760000000     0.020110000000     0.198160000000     0          
C        C      0.257495000000     0.041645000000     0.172220000000     0          
C        C      0.260475000000     0.067725000000     0.175900000000     0          
C        C      0.214160000000     0.420210000000     0.472960000000     0          
C        C      0.228765000000     0.448145000000     0.456220000000     0          
C        C      0.222545000000     0.467545000000     0.426020000000     0          
C        C      0.201760000000     0.459010000000     0.412560000000     0          
C        C      0.187140000000     0.431075000000     0.429300000000     0          
C        C      0.193325000000     0.411675000000     0.459500000000     0          
C        C      0.038305000000     0.410455000000     0.450380000000     0          
C        C      0.109835000000     0.474335000000     0.371460000000     0          
C        C      0.113955000000     0.444905000000     0.381780000000     0          
C        C      0.091200000000     0.424400000000     0.407600000000     0          
C        C      0.064320000000     0.433420000000     0.423120000000     0          
C        C      0.060215000000     0.462845000000     0.412820000000     0          
C        C      0.082955000000     0.483305000000     0.386980000000     0          
C        C      0.336990000000     0.017640000000     0.049840000000     0          
C        C      0.176680000000     0.038880000000     0.291880000000     0          
C        C      0.148680000000     0.037630000000     0.289480000000     0          
C        C      0.127345000000     0.016030000000     0.316080000000     0          
C        C      0.134025000000     0.495575000000     0.345100000000     0          
C        C      0.162020000000     0.496770000000     0.347520000000     0          
C        C      0.183360000000     0.018425000000     0.320900000000     0          
C        C      0.211025000000     0.019875000000     0.325100000000     0          
C        C      0.217905000000     0.000305000000     0.352780000000     0          
C        C      0.195935000000     0.479535000000     0.379660000000     0          
C        C      0.168540000000     0.478640000000     0.377840000000     0          
C        C      0.115650000000     0.056150000000     0.255400000000     0          
C        C      0.115500000000     0.076800000000     0.216400000000     0          
C        C      0.186250000000     0.122200000000     0.299800000000     0          
C        C      0.168950000000     0.130900000000     0.332600000000     0          
C        C      0.395175000000     0.278425000000     0.640100000000     0          
C        C      0.422560000000     0.269925000000     0.625760000000     0          
C        C      0.444175000000     0.289975000000     0.596900000000     0          
C        C      0.438405000000     0.318555000000     0.582380000000     0          
C        C      0.411020000000     0.327060000000     0.596720000000     0          
C        C      0.389405000000     0.307005000000     0.625580000000     0          
C        C      0.254825000000     0.322775000000     0.596700000000     0          
C        C      0.281855000000     0.264205000000     0.680180000000     0          
C        C      0.289665000000     0.293810000000     0.671560000000     0          
C        C      0.278905000000     0.314265000000     0.646780000000     0          
C        C      0.260340000000     0.305140000000     0.630640000000     0          
C        C      0.252570000000     0.275535000000     0.639260000000     0          
C        C      0.263345000000     0.255080000000     0.664020000000     0          
C        C      0.350460000000     0.224460000000     0.001360000000     0          
C        C      0.309695000000     0.197595000000     0.760020000000     0          
C        C      0.280525000000     0.198325000000     0.762100000000     0          
C        C      0.272230000000     0.220350000000     0.736200000000     0          
C        C      0.293145000000     0.241695000000     0.708220000000     0          
C        C      0.322320000000     0.240970000000     0.706120000000     0          
C        C      0.330575000000     0.218940000000     0.732040000000     0          
C        C      0.359065000000     0.216265000000     0.727540000000     0          
C        C      0.380810000000     0.236760000000     0.698160000000     0          
C        C      0.372245000000     0.257495000000     0.672220000000     0          
C        C      0.344325000000     0.260475000000     0.675900000000     0          
C        C      0.343310000000     0.214160000000     0.972960000000     0          
C        C      0.323745000000     0.228765000000     0.956220000000     0          
C        C      0.319445000000     0.222545000000     0.926020000000     0          
C        C      0.334710000000     0.201760000000     0.912560000000     0          
C        C      0.354275000000     0.187140000000     0.929300000000     0          
C        C      0.358575000000     0.193325000000     0.959500000000     0          
C        C      0.364355000000     0.038305000000     0.950380000000     0          
C        C      0.339935000000     0.109835000000     0.871460000000     0          
C        C      0.364205000000     0.113955000000     0.881780000000     0          
C        C      0.371800000000     0.091200000000     0.907600000000     0          
C        C      0.355020000000     0.064320000000     0.923120000000     0          
C        C      0.330745000000     0.060215000000     0.912820000000     0          
C        C      0.323205000000     0.082955000000     0.886980000000     0          
C        C      0.457440000000     0.336990000000     0.549840000000     0          
C        C      0.315180000000     0.176680000000     0.791880000000     0          
C        C      0.317630000000     0.148680000000     0.789480000000     0          
C        C      0.325930000000     0.127345000000     0.816080000000     0          
C        C      0.331875000000     0.134025000000     0.845100000000     0          
C        C      0.329470000000     0.162020000000     0.847520000000     0          
C        C      0.321125000000     0.183360000000     0.820900000000     0          
C        C      0.317575000000     0.211025000000     0.825100000000     0          
C        C      0.323305000000     0.217905000000     0.852780000000     0          
C        C      0.330635000000     0.195935000000     0.879660000000     0          
C        C      0.332440000000     0.168540000000     0.877840000000     0          
C        C      0.316150000000     0.115650000000     0.755400000000     0          
C        C      0.315000000000     0.115500000000     0.716400000000     0          
C        C      0.227900000000     0.186250000000     0.799800000000     0          
C        C      0.202800000000     0.168950000000     0.832600000000     0          
C        C      0.034775000000     0.401525000000     0.640100000000     0          
C        C      0.014560000000     0.417195000000     0.625760000000     0          
C        C      0.007375000000     0.411575000000     0.596900000000     0          
C        C      0.020405000000     0.390255000000     0.582380000000     0          
C        C      0.040620000000     0.374580000000     0.596720000000     0          
C        C      0.047805000000     0.380205000000     0.625580000000     0          
C        C      0.196825000000     0.378875000000     0.596700000000     0          
C        C      0.128055000000     0.395705000000     0.680180000000     0          
C        C      0.124555000000     0.370410000000     0.671560000000     0          
C        C      0.147705000000     0.362345000000     0.646780000000     0          
C        C      0.174340000000     0.379540000000     0.630640000000     0          
C        C      0.177800000000     0.404835000000     0.639260000000     0          
C        C      0.154645000000     0.412910000000     0.664020000000     0          
C        C      0.398860000000     0.274860000000     0.001360000000     0          
C        C      0.060295000000     0.422395000000     0.760020000000     0          
C        C      0.088425000000     0.420625000000     0.762100000000     0          
C        C      0.109670000000     0.411550000000     0.736200000000     0          
C        C      0.102745000000     0.404195000000     0.708220000000     0          
C        C      0.074620000000     0.405970000000     0.706120000000     0          
C        C      0.053405000000     0.415040000000     0.732040000000     0          
C        C      0.027165000000     0.419965000000     0.727540000000     0          
C        C      0.020110000000     0.414160000000     0.698160000000     0          
C        C      0.041645000000     0.406395000000     0.672220000000     0          
C        C      0.067725000000     0.401575000000     0.675900000000     0          
C        C      0.420210000000     0.299360000000     0.972960000000     0          
C        C      0.448145000000     0.293125000000     0.956220000000     0          
C        C      0.467545000000     0.314445000000     0.926020000000     0          
C        C      0.459010000000     0.341960000000     0.912560000000     0          
C        C      0.431075000000     0.348210000000     0.929300000000     0          
C        C      0.411675000000     0.326925000000     0.959500000000     0          
C        C      0.410455000000     0.486505000000     0.950380000000     0          
C        C      0.474335000000     0.454435000000     0.871460000000     0          
C        C      0.444905000000     0.445155000000     0.881780000000     0          
C        C      0.424400000000     0.455000000000     0.907600000000     0          
C        C      0.433420000000     0.474120000000     0.923120000000     0          
C        C      0.462845000000     0.483375000000     0.912820000000     0          
C        C      0.483305000000     0.473555000000     0.886980000000     0          
C        C      0.017640000000     0.388090000000     0.549840000000     0          
C        C      0.038880000000     0.427380000000     0.791880000000     0          
C        C      0.037630000000     0.456580000000     0.789480000000     0          
C        C      0.016030000000     0.464615000000     0.816080000000     0          
C        C      0.495575000000     0.443425000000     0.845100000000     0          
C        C      0.496770000000     0.414220000000     0.847520000000     0          
C        C      0.018425000000     0.406190000000     0.820900000000     0          
C        C      0.019875000000     0.376425000000     0.825100000000     0          
C        C      0.000305000000     0.355705000000     0.852780000000     0          
C        C      0.479535000000     0.364235000000     0.879660000000     0          
C        C      0.478640000000     0.392540000000     0.877840000000     0          
C        C      0.056150000000     0.006650000000     0.755400000000     0          
C        C      0.076800000000     0.026300000000     0.716400000000     0          
C        C      0.122200000000     0.413850000000     0.799800000000     0          
C        C      0.130900000000     0.414750000000     0.832600000000     0          
O        O      0.388505000000     0.234305000000     0.088580000000     0          
O        O      0.251365000000     0.336015000000     0.511740000000     0          
O        O      0.400530000000     0.484930000000     0.038680000000     0          
O        O      0.003860000000     0.347560000000     0.461760000000     0          
O        O      0.474425000000     0.382975000000     0.461300000000     0          
O        O      0.366395000000     0.454295000000     0.037020000000     0          
O        O      0.353615000000     0.263595000000     0.089740000000     0          
O        O      0.282955000000     0.368255000000     0.512780000000     0          
O        O      0.423290000000     0.258990000000     0.292640000000     0          
O        O      0.475265000000     0.312565000000     0.259740000000     0          
O        O      0.317205000000     0.221405000000     0.088580000000     0          
O        O      0.242765000000     0.408115000000     0.511740000000     0          
O        O      0.330130000000     0.495730000000     0.038680000000     0          
O        O      0.015260000000     0.421560000000     0.461760000000     0          
O        O      0.044925000000     0.386375000000     0.461300000000     0          
O        O      0.365095000000     0.027195000000     0.037020000000     0          
O        O      0.351515000000     0.191535000000     0.089740000000     0          
O        O      0.210655000000     0.375355000000     0.512780000000     0          
O        O      0.180390000000     0.094690000000     0.292640000000     0          
O        O      0.144865000000     0.057565000000     0.259740000000     0          
O        O      0.234305000000     0.317205000000     0.588580000000     0          
O        O      0.336015000000     0.242765000000     0.011740000000     0          
O        O      0.484930000000     0.330130000000     0.538680000000     0          
O        O      0.347560000000     0.015260000000     0.961760000000     0          
O        O      0.382975000000     0.044925000000     0.961300000000     0          
O        O      0.454295000000     0.365095000000     0.537020000000     0          
O        O      0.263595000000     0.351515000000     0.589740000000     0          
O        O      0.368255000000     0.210655000000     0.012780000000     0          
O        O      0.258990000000     0.180390000000     0.792640000000     0          
O        O      0.312565000000     0.144865000000     0.759740000000     0          
O        O      0.221405000000     0.388505000000     0.588580000000     0          
O        O      0.408115000000     0.251365000000     0.011740000000     0          
O        O      0.495730000000     0.400530000000     0.538680000000     0          
O        O      0.421560000000     0.003860000000     0.961760000000     0          
O        O      0.386375000000     0.474425000000     0.961300000000     0          
O        O      0.027195000000     0.366395000000     0.537020000000     0          
O        O      0.191535000000     0.353615000000     0.589740000000     0          
O        O      0.375355000000     0.282955000000     0.012780000000     0          
O        O      0.094690000000     0.423290000000     0.792640000000     0          
O        O      0.057565000000     0.475265000000     0.759740000000     0          
Cu       Cu     0.117940000000     0.780795000000     0.948100000000     0          
Cu       Cu     0.104885000000     0.982380000000     0.000240000000     0          
Cu       Cu     0.158010000000     0.745155000000     0.948100000000     0          
Cu       Cu     0.144995000000     0.517500000000     0.000240000000     0          
Cu       Cu     0.280795000000     0.658010000000     0.448100000000     0          
Cu       Cu     0.482380000000     0.644995000000     0.500240000000     0          
Cu       Cu     0.245155000000     0.617940000000     0.448100000000     0          
Cu       Cu     0.017500000000     0.604885000000     0.500240000000     0          
H        H      0.068750000000     0.573650000000     0.864600000000     0          
H        H      0.078050000000     0.537750000000     0.912600000000     0          
H        H      0.139500000000     0.592800000000     0.912800000000     0          
H        H      0.130150000000     0.628650000000     0.865000000000     0          
H        H      0.140900000000     0.698100000000     0.817800000000     0          
H        H      0.154300000000     0.715950000000     0.859000000000     0          
H        H      0.083850000000     0.759650000000     0.871400000000     0          
H        H      0.070450000000     0.741850000000     0.830200000000     0          
H        H      0.089600000000     0.747000000000     0.762400000000     0          
H        H      0.072850000000     0.635600000000     0.756200000000     0          
H        H      0.084500000000     0.599900000000     0.803400000000     0          
H        H      0.104700000000     0.660650000000     0.841400000000     0          
H        H      0.225000000000     0.686300000000     0.535000000000     0          
H        H      0.189700000000     0.693450000000     0.585000000000     0          
H        H      0.133600000000     0.635600000000     0.579600000000     0          
H        H      0.169000000000     0.628550000000     0.529400000000     0          
H        H      0.067450000000     0.624750000000     0.628400000000     0          
H        H      0.051100000000     0.612200000000     0.585600000000     0          
H        H      0.004000000000     0.680300000000     0.577000000000     0          
H        H      0.020350000000     0.692850000000     0.619800000000     0          
H        H      0.016100000000     0.672450000000     0.685600000000     0          
H        H      0.129050000000     0.688900000000     0.691600000000     0          
H        H      0.163500000000     0.677550000000     0.646000000000     0          
H        H      0.102550000000     0.664300000000     0.603000000000     0          
H        H      0.488750000000     0.665550000000     0.742000000000     0          
H        H      0.489250000000     0.699000000000     0.725200000000     0          
H        H      0.453850000000     0.681250000000     0.786200000000     0          
H        H      0.476950000000     0.703700000000     0.785400000000     0          
H        H      0.478500000000     0.670700000000     0.802800000000     0          
H        H      0.105950000000     0.772600000000     0.700000000000     0          
H        H      0.075100000000     0.776700000000     0.722000000000     0          
H        H      0.094800000000     0.814300000000     0.667400000000     0          
H        H      0.065600000000     0.800100000000     0.669000000000     0          
H        H      0.094800000000     0.793200000000     0.645000000000     0          
H        H      0.248950000000     0.994050000000     0.864600000000     0          
H        H      0.215650000000     0.505950000000     0.912600000000     0          
H        H      0.154100000000     0.950800000000     0.912800000000     0          
H        H      0.187350000000     0.938850000000     0.865000000000     0          
H        H      0.200200000000     0.893000000000     0.817800000000     0          
H        H      0.166200000000     0.854550000000     0.859000000000     0          
H        H      0.230450000000     0.804650000000     0.871400000000     0          
H        H      0.264450000000     0.843050000000     0.830200000000     0          
H        H      0.279200000000     0.871800000000     0.762400000000     0          
H        H      0.299050000000     0.986300000000     0.756200000000     0          
H        H      0.263800000000     0.998400000000     0.803400000000     0          
H        H      0.224600000000     0.918650000000     0.841400000000     0          
H        H      0.257500000000     0.546200000000     0.535000000000     0          
H        H      0.267800000000     0.514050000000     0.585000000000     0          
H        H      0.326600000000     0.574600000000     0.579600000000     0          
H        H      0.316300000000     0.606750000000     0.529400000000     0          
H        H      0.368350000000     0.561050000000     0.628400000000     0          
H        H      0.406100000000     0.595000000000     0.585600000000     0          
H        H      0.457500000000     0.531200000000     0.577000000000     0          
H        H      0.419750000000     0.997250000000     0.619800000000     0          
H        H      0.391100000000     0.984750000000     0.685600000000     0          
H        H      0.275150000000     0.965300000000     0.691600000000     0          
H        H      0.263500000000     0.999450000000     0.646000000000     0          
H        H      0.345950000000     0.534200000000     0.603000000000     0          
H        H      0.390250000000     0.963450000000     0.742000000000     0          
H        H      0.398150000000     0.938400000000     0.725200000000     0          
H        H      0.403050000000     0.925650000000     0.786200000000     0          
H        H      0.380350000000     0.903600000000     0.785400000000     0          
H        H      0.370100000000     0.927900000000     0.802800000000     0          
H        H      0.294050000000     0.877400000000     0.700000000000     0          
H        H      0.313900000000     0.862300000000     0.722000000000     0          
H        H      0.321500000000     0.852000000000     0.667400000000     0          
H        H      0.349900000000     0.865400000000     0.669000000000     0          
H        H      0.332700000000     0.884300000000     0.645000000000     0          
H        H      0.073650000000     0.748950000000     0.364600000000     0          
H        H      0.037750000000     0.715650000000     0.412600000000     0          
H        H      0.092800000000     0.654100000000     0.412800000000     0          
H        H      0.128650000000     0.687350000000     0.365000000000     0          
H        H      0.198100000000     0.700200000000     0.317800000000     0          
H        H      0.215950000000     0.666200000000     0.359000000000     0          
H        H      0.259650000000     0.730450000000     0.371400000000     0          
H        H      0.241850000000     0.764450000000     0.330200000000     0          
H        H      0.247000000000     0.779200000000     0.262400000000     0          
H        H      0.135600000000     0.799050000000     0.256200000000     0          
H        H      0.099900000000     0.763800000000     0.303400000000     0          
H        H      0.160650000000     0.724600000000     0.341400000000     0          
H        H      0.186300000000     0.757500000000     0.035000000000     0          
H        H      0.193450000000     0.767800000000     0.085000000000     0          
H        H      0.135600000000     0.826600000000     0.079600000000     0          
H        H      0.128550000000     0.816300000000     0.029400000000     0          
H        H      0.124750000000     0.868350000000     0.128400000000     0          
H        H      0.112200000000     0.906100000000     0.085600000000     0          
H        H      0.180300000000     0.957500000000     0.077000000000     0          
H        H      0.192850000000     0.919750000000     0.119800000000     0          
H        H      0.172450000000     0.891100000000     0.185600000000     0          
H        H      0.188900000000     0.775150000000     0.191600000000     0          
H        H      0.177550000000     0.763500000000     0.146000000000     0          
H        H      0.164300000000     0.845950000000     0.103000000000     0          
H        H      0.165550000000     0.890250000000     0.242000000000     0          
H        H      0.199000000000     0.898150000000     0.225200000000     0          
H        H      0.181250000000     0.903050000000     0.286200000000     0          
H        H      0.203700000000     0.880350000000     0.285400000000     0          
H        H      0.170700000000     0.870100000000     0.302800000000     0          
H        H      0.272600000000     0.794050000000     0.200000000000     0          
H        H      0.276700000000     0.813900000000     0.222000000000     0          
H        H      0.314300000000     0.821500000000     0.167400000000     0          
H        H      0.300100000000     0.849900000000     0.169000000000     0          
H        H      0.293200000000     0.832700000000     0.145000000000     0          
H        H      0.494050000000     0.568750000000     0.364600000000     0          
H        H      0.005950000000     0.578050000000     0.412600000000     0          
H        H      0.450800000000     0.639500000000     0.412800000000     0          
H        H      0.438850000000     0.630150000000     0.365000000000     0          
H        H      0.393000000000     0.640900000000     0.317800000000     0          
H        H      0.354550000000     0.654300000000     0.359000000000     0          
H        H      0.304650000000     0.583850000000     0.371400000000     0          
H        H      0.343050000000     0.570450000000     0.330200000000     0          
H        H      0.371800000000     0.589600000000     0.262400000000     0          
H        H      0.486300000000     0.572850000000     0.256200000000     0          
H        H      0.498400000000     0.584500000000     0.303400000000     0          
H        H      0.418650000000     0.604700000000     0.341400000000     0          
H        H      0.046200000000     0.725000000000     0.035000000000     0          
H        H      0.014050000000     0.689700000000     0.085000000000     0          
H        H      0.074600000000     0.633600000000     0.079600000000     0          
H        H      0.106750000000     0.669000000000     0.029400000000     0          
H        H      0.061050000000     0.567450000000     0.128400000000     0          
H        H      0.095000000000     0.551100000000     0.085600000000     0          
H        H      0.031200000000     0.504000000000     0.077000000000     0          
H        H      0.497250000000     0.520350000000     0.119800000000     0          
H        H      0.484750000000     0.516100000000     0.185600000000     0          
H        H      0.465300000000     0.629050000000     0.191600000000     0          
H        H      0.499450000000     0.663500000000     0.146000000000     0          
H        H      0.034200000000     0.602550000000     0.103000000000     0          
H        H      0.463450000000     0.988750000000     0.242000000000     0          
H        H      0.438400000000     0.989250000000     0.225200000000     0          
H        H      0.425650000000     0.953850000000     0.286200000000     0          
H        H      0.403600000000     0.976950000000     0.285400000000     0          
H        H      0.427900000000     0.978500000000     0.302800000000     0          
H        H      0.377400000000     0.605950000000     0.200000000000     0          
H        H      0.362300000000     0.575100000000     0.222000000000     0          
H        H      0.352000000000     0.594800000000     0.167400000000     0          
H        H      0.365400000000     0.565600000000     0.169000000000     0          
H        H      0.384300000000     0.594800000000     0.145000000000     0          
C        C      0.098475000000     0.604825000000     0.859900000000     0          
C        C      0.082805000000     0.577440000000     0.874240000000     0          
C        C      0.088425000000     0.555825000000     0.903100000000     0          
C        C      0.109745000000     0.561595000000     0.917620000000     0          
C        C      0.125420000000     0.588980000000     0.903280000000     0          
C        C      0.119795000000     0.610595000000     0.874420000000     0          
C        C      0.121125000000     0.745175000000     0.903300000000     0          
C        C      0.104295000000     0.718145000000     0.819820000000     0          
C        C      0.129590000000     0.710335000000     0.828440000000     0          
C        C      0.137655000000     0.721095000000     0.853220000000     0          
C        C      0.120460000000     0.739660000000     0.869360000000     0          
C        C      0.095165000000     0.747430000000     0.860740000000     0          
C        C      0.087090000000     0.736655000000     0.835980000000     0          
C        C      0.225140000000     0.649540000000     0.498640000000     0          
C        C      0.077605000000     0.690305000000     0.739980000000     0          
C        C      0.079375000000     0.719475000000     0.737900000000     0          
C        C      0.088450000000     0.727770000000     0.763800000000     0          
C        C      0.095805000000     0.706855000000     0.791780000000     0          
C        C      0.094030000000     0.677680000000     0.793880000000     0          
C        C      0.084960000000     0.669425000000     0.767960000000     0          
C        C      0.080035000000     0.640935000000     0.772460000000     0          
C        C      0.085840000000     0.619190000000     0.801840000000     0          
C        C      0.093605000000     0.627755000000     0.827780000000     0          
C        C      0.098425000000     0.655675000000     0.824100000000     0          
C        C      0.200640000000     0.656690000000     0.527040000000     0          
C        C      0.206875000000     0.676255000000     0.543780000000     0          
C        C      0.185555000000     0.680555000000     0.573980000000     0          
C        C      0.158040000000     0.665290000000     0.587440000000     0          
C        C      0.151790000000     0.645725000000     0.570700000000     0          
C        C      0.173075000000     0.641425000000     0.540500000000     0          
C        C      0.013495000000     0.635645000000     0.549620000000     0          
C        C      0.045565000000     0.660065000000     0.628540000000     0          
C        C      0.054845000000     0.635795000000     0.618220000000     0          
C        C      0.045000000000     0.628200000000     0.592400000000     0          
C        C      0.025880000000     0.644980000000     0.576880000000     0          
C        C      0.016625000000     0.669255000000     0.587180000000     0          
C        C      0.026445000000     0.676795000000     0.613020000000     0          
C        C      0.111910000000     0.542560000000     0.950160000000     0          
C        C      0.072620000000     0.684820000000     0.708120000000     0          
C        C      0.043420000000     0.682370000000     0.710520000000     0          
C        C      0.035385000000     0.674070000000     0.683920000000     0          
C        C      0.056575000000     0.668125000000     0.654900000000     0          
C        C      0.085780000000     0.670530000000     0.652480000000     0          
C        C      0.093810000000     0.678875000000     0.679100000000     0          
C        C      0.123575000000     0.682425000000     0.674900000000     0          
C        C      0.144295000000     0.676695000000     0.647220000000     0          
C        C      0.135765000000     0.669365000000     0.620340000000     0          
C        C      0.107460000000     0.667560000000     0.622160000000     0          
C        C      0.493350000000     0.683850000000     0.744600000000     0          
C        C      0.473700000000     0.685000000000     0.783600000000     0          
C        C      0.086150000000     0.772100000000     0.700200000000     0          
C        C      0.085250000000     0.797200000000     0.667400000000     0          
C        C      0.221575000000     0.965225000000     0.859900000000     0          
C        C      0.230075000000     0.985440000000     0.874240000000     0          
C        C      0.210025000000     0.992625000000     0.903100000000     0          
C        C      0.181445000000     0.979595000000     0.917620000000     0          
C        C      0.172940000000     0.959380000000     0.903280000000     0          
C        C      0.192995000000     0.952195000000     0.874420000000     0          
C        C      0.177225000000     0.803175000000     0.903300000000     0          
C        C      0.235795000000     0.871945000000     0.819820000000     0          
C        C      0.206190000000     0.875445000000     0.828440000000     0          
C        C      0.185735000000     0.852295000000     0.853220000000     0          
C        C      0.194860000000     0.825660000000     0.869360000000     0          
C        C      0.224465000000     0.822200000000     0.860740000000     0          
C        C      0.244920000000     0.845355000000     0.835980000000     0          
C        C      0.275540000000     0.601140000000     0.498640000000     0          
C        C      0.302405000000     0.939705000000     0.739980000000     0          
C        C      0.301675000000     0.911575000000     0.737900000000     0          
C        C      0.279650000000     0.890330000000     0.763800000000     0          
C        C      0.258305000000     0.897255000000     0.791780000000     0          
C        C      0.259030000000     0.925380000000     0.793880000000     0          
C        C      0.281060000000     0.946595000000     0.767960000000     0          
C        C      0.283735000000     0.972835000000     0.772460000000     0          
C        C      0.263240000000     0.979890000000     0.801840000000     0          
C        C      0.242505000000     0.958355000000     0.827780000000     0          
C        C      0.239525000000     0.932275000000     0.824100000000     0          
C        C      0.285840000000     0.579790000000     0.527040000000     0          
C        C      0.271235000000     0.551855000000     0.543780000000     0          
C        C      0.277455000000     0.532455000000     0.573980000000     0          
C        C      0.298240000000     0.540990000000     0.587440000000     0          
C        C      0.312860000000     0.568925000000     0.570700000000     0          
C        C      0.306675000000     0.588325000000     0.540500000000     0          
C        C      0.461695000000     0.589545000000     0.549620000000     0          
C        C      0.390165000000     0.525665000000     0.628540000000     0          
C        C      0.386045000000     0.555095000000     0.618220000000     0          
C        C      0.408800000000     0.575600000000     0.592400000000     0          
C        C      0.435680000000     0.566580000000     0.576880000000     0          
C        C      0.439785000000     0.537155000000     0.587180000000     0          
C        C      0.417045000000     0.516695000000     0.613020000000     0          
C        C      0.163010000000     0.982360000000     0.950160000000     0          
C        C      0.323320000000     0.961120000000     0.708120000000     0          
C        C      0.351320000000     0.962370000000     0.710520000000     0          
C        C      0.372655000000     0.983970000000     0.683920000000     0          
C        C      0.365975000000     0.504425000000     0.654900000000     0          
C        C      0.337980000000     0.503230000000     0.652480000000     0          
C        C      0.316640000000     0.981575000000     0.679100000000     0          
C        C      0.288975000000     0.980125000000     0.674900000000     0          
C        C      0.282095000000     0.999695000000     0.647220000000     0          
C        C      0.304065000000     0.520465000000     0.620340000000     0          
C        C      0.331460000000     0.521360000000     0.622160000000     0          
C        C      0.384350000000     0.943850000000     0.744600000000     0          
C        C      0.384500000000     0.923200000000     0.783600000000     0          
C        C      0.313750000000     0.877800000000     0.700200000000     0          
C        C      0.331050000000     0.869100000000     0.667400000000     0          
C        C      0.104825000000     0.721575000000     0.359900000000     0          
C        C      0.077440000000     0.730075000000     0.374240000000     0          
C        C      0.055825000000     0.710025000000     0.403100000000     0          
C        C      0.061595000000     0.681445000000     0.417620000000     0          
C        C      0.088980000000     0.672940000000     0.403280000000     0          
C        C      0.110595000000     0.692995000000     0.374420000000     0          
C        C      0.245175000000     0.677225000000     0.403300000000     0          
C        C      0.218145000000     0.735795000000     0.319820000000     0          
C        C      0.210335000000     0.706190000000     0.328440000000     0          
C        C      0.221095000000     0.685735000000     0.353220000000     0          
C        C      0.239660000000     0.694860000000     0.369360000000     0          
C        C      0.247430000000     0.724465000000     0.360740000000     0          
C        C      0.236655000000     0.744920000000     0.335980000000     0          
C        C      0.149540000000     0.775540000000     0.998640000000     0          
C        C      0.190305000000     0.802405000000     0.239980000000     0          
C        C      0.219475000000     0.801675000000     0.237900000000     0          
C        C      0.227770000000     0.779650000000     0.263800000000     0          
C        C      0.206855000000     0.758305000000     0.291780000000     0          
C        C      0.177680000000     0.759030000000     0.293880000000     0          
C        C      0.169425000000     0.781060000000     0.267960000000     0          
C        C      0.140935000000     0.783735000000     0.272460000000     0          
C        C      0.119190000000     0.763240000000     0.301840000000     0          
C        C      0.127755000000     0.742505000000     0.327780000000     0          
C        C      0.155675000000     0.739525000000     0.324100000000     0          
C        C      0.156690000000     0.785840000000     0.027040000000     0          
C        C      0.176255000000     0.771235000000     0.043780000000     0          
C        C      0.180555000000     0.777455000000     0.073980000000     0          
C        C      0.165290000000     0.798240000000     0.087440000000     0          
C        C      0.145725000000     0.812860000000     0.070700000000     0          
C        C      0.141425000000     0.806675000000     0.040500000000     0          
C        C      0.135645000000     0.961695000000     0.049620000000     0          
C        C      0.160065000000     0.890165000000     0.128540000000     0          
C        C      0.135795000000     0.886045000000     0.118220000000     0          
C        C      0.128200000000     0.908800000000     0.092400000000     0          
C        C      0.144980000000     0.935680000000     0.076880000000     0          
C        C      0.169255000000     0.939785000000     0.087180000000     0          
C        C      0.176795000000     0.917045000000     0.113020000000     0          
C        C      0.042560000000     0.663010000000     0.450160000000     0          
C        C      0.184820000000     0.823320000000     0.208120000000     0          
C        C      0.182370000000     0.851320000000     0.210520000000     0          
C        C      0.174070000000     0.872655000000     0.183920000000     0          
C        C      0.168125000000     0.865975000000     0.154900000000     0          
C        C      0.170530000000     0.837980000000     0.152480000000     0          
C        C      0.178875000000     0.816640000000     0.179100000000     0          
C        C      0.182425000000     0.788975000000     0.174900000000     0          
C        C      0.176695000000     0.782095000000     0.147220000000     0          
C        C      0.169365000000     0.804065000000     0.120340000000     0          
C        C      0.167560000000     0.831460000000     0.122160000000     0          
C        C      0.183850000000     0.884350000000     0.244600000000     0          
C        C      0.185000000000     0.884500000000     0.283600000000     0          
C        C      0.272100000000     0.813750000000     0.200200000000     0          
C        C      0.297200000000     0.831050000000     0.167400000000     0          
C        C      0.465225000000     0.598475000000     0.359900000000     0          
C        C      0.485440000000     0.582805000000     0.374240000000     0          
C        C      0.492625000000     0.588425000000     0.403100000000     0          
C        C      0.479595000000     0.609745000000     0.417620000000     0          
C        C      0.459380000000     0.625420000000     0.403280000000     0          
C        C      0.452195000000     0.619795000000     0.374420000000     0          
C        C      0.303175000000     0.621125000000     0.403300000000     0          
C        C      0.371945000000     0.604295000000     0.319820000000     0          
C        C      0.375445000000     0.629590000000     0.328440000000     0          
C        C      0.352295000000     0.637655000000     0.353220000000     0          
C        C      0.325660000000     0.620460000000     0.369360000000     0          
C        C      0.322200000000     0.595165000000     0.360740000000     0          
C        C      0.345355000000     0.587090000000     0.335980000000     0          
C        C      0.101140000000     0.725140000000     0.998640000000     0          
C        C      0.439705000000     0.577605000000     0.239980000000     0          
C        C      0.411575000000     0.579375000000     0.237900000000     0          
C        C      0.390330000000     0.588450000000     0.263800000000     0          
C        C      0.397255000000     0.595805000000     0.291780000000     0          
C        C      0.425380000000     0.594030000000     0.293880000000     0          
C        C      0.446595000000     0.584960000000     0.267960000000     0          
C        C      0.472835000000     0.580035000000     0.272460000000     0          
C        C      0.479890000000     0.585840000000     0.301840000000     0          
C        C      0.458355000000     0.593605000000     0.327780000000     0          
C        C      0.432275000000     0.598425000000     0.324100000000     0          
C        C      0.079790000000     0.700640000000     0.027040000000     0          
C        C      0.051855000000     0.706875000000     0.043780000000     0          
C        C      0.032455000000     0.685555000000     0.073980000000     0          
C        C      0.040990000000     0.658040000000     0.087440000000     0          
C        C      0.068925000000     0.651790000000     0.070700000000     0          
C        C      0.088325000000     0.673075000000     0.040500000000     0          
C        C      0.089545000000     0.513495000000     0.049620000000     0          
C        C      0.025665000000     0.545565000000     0.128540000000     0          
C        C      0.055095000000     0.554845000000     0.118220000000     0          
C        C      0.075600000000     0.545000000000     0.092400000000     0          
C        C      0.066580000000     0.525880000000     0.076880000000     0          
C        C      0.037155000000     0.516625000000     0.087180000000     0          
C        C      0.016695000000     0.526445000000     0.113020000000     0          
C        C      0.482360000000     0.611910000000     0.450160000000     0          
C        C      0.461120000000     0.572620000000     0.208120000000     0          
C        C      0.462370000000     0.543420000000     0.210520000000     0          
C        C      0.483970000000     0.535385000000     0.183920000000     0          
C        C      0.004425000000     0.556575000000     0.154900000000     0          
C        C      0.003230000000     0.585780000000     0.152480000000     0          
C        C      0.481575000000     0.593810000000     0.179100000000     0          
C        C      0.480125000000     0.623575000000     0.174900000000     0          
C        C      0.499695000000     0.644295000000     0.147220000000     0          
C        C      0.020465000000     0.635765000000     0.120340000000     0          
C        C      0.021360000000     0.607460000000     0.122160000000     0          
C        C      0.443850000000     0.993350000000     0.244600000000     0          
C        C      0.423200000000     0.973700000000     0.283600000000     0          
C        C      0.377800000000     0.586150000000     0.200200000000     0          
C        C      0.369100000000     0.585250000000     0.167400000000     0          
O        O      0.111495000000     0.765695000000     0.911420000000     0          
O        O      0.248635000000     0.663985000000     0.488260000000     0          
O        O      0.099470000000     0.515070000000     0.961320000000     0          
O        O      0.496140000000     0.652440000000     0.538240000000     0          
O        O      0.025575000000     0.617025000000     0.538700000000     0          
O        O      0.133605000000     0.545705000000     0.962980000000     0          
O        O      0.146385000000     0.736405000000     0.910260000000     0          
O        O      0.217045000000     0.631745000000     0.487220000000     0          
O        O      0.076710000000     0.741010000000     0.707360000000     0          
O        O      0.024735000000     0.687435000000     0.740260000000     0          
O        O      0.182795000000     0.778595000000     0.911420000000     0          
O        O      0.257235000000     0.591885000000     0.488260000000     0          
O        O      0.169870000000     0.504270000000     0.961320000000     0          
O        O      0.484740000000     0.578440000000     0.538240000000     0          
O        O      0.455075000000     0.613625000000     0.538700000000     0          
O        O      0.134905000000     0.972805000000     0.962980000000     0          
O        O      0.148485000000     0.808465000000     0.910260000000     0          
O        O      0.289345000000     0.624645000000     0.487220000000     0          
O        O      0.319610000000     0.905310000000     0.707360000000     0          
O        O      0.355135000000     0.942435000000     0.740260000000     0          
O        O      0.265695000000     0.682795000000     0.411420000000     0          
O        O      0.163985000000     0.757235000000     0.988260000000     0          
O        O      0.015070000000     0.669870000000     0.461320000000     0          
O        O      0.152440000000     0.984740000000     0.038240000000     0          
O        O      0.117025000000     0.955075000000     0.038700000000     0          
O        O      0.045705000000     0.634905000000     0.462980000000     0          
O        O      0.236405000000     0.648485000000     0.410260000000     0          
O        O      0.131745000000     0.789345000000     0.987220000000     0          
O        O      0.241010000000     0.819610000000     0.207360000000     0          
O        O      0.187435000000     0.855135000000     0.240260000000     0          
O        O      0.278595000000     0.611495000000     0.411420000000     0          
O        O      0.091885000000     0.748635000000     0.988260000000     0          
O        O      0.004270000000     0.599470000000     0.461320000000     0          
O        O      0.078440000000     0.996140000000     0.038240000000     0          
O        O      0.113625000000     0.525575000000     0.038700000000     0          
O        O      0.472805000000     0.633605000000     0.462980000000     0          
O        O      0.308465000000     0.646385000000     0.410260000000     0          
O        O      0.124645000000     0.717045000000     0.987220000000     0          
O        O      0.405310000000     0.576710000000     0.207360000000     0          
O        O      0.442435000000     0.524735000000     0.240260000000     0          
Cu       Cu     0.382060000000     0.719205000000     0.051900000000     0          
Cu       Cu     0.395115000000     0.517620000000     0.999760000000     0          
Cu       Cu     0.341990000000     0.754845000000     0.051900000000     0          
Cu       Cu     0.355005000000     0.982500000000     0.999760000000     0          
Cu       Cu     0.219205000000     0.841990000000     0.551900000000     0          
Cu       Cu     0.017620000000     0.855005000000     0.499760000000     0          
Cu       Cu     0.254845000000     0.882060000000     0.551900000000     0          
Cu       Cu     0.482500000000     0.895115000000     0.499760000000     0          
H        H      0.431250000000     0.926350000000     0.135400000000     0          
H        H      0.421950000000     0.962250000000     0.087400000000     0          
H        H      0.360500000000     0.907200000000     0.087200000000     0          
H        H      0.369850000000     0.871350000000     0.135000000000     0          
H        H      0.359100000000     0.801900000000     0.182200000000     0          
H        H      0.345700000000     0.784050000000     0.141000000000     0          
H        H      0.416150000000     0.740350000000     0.128600000000     0          
H        H      0.429550000000     0.758150000000     0.169800000000     0          
H        H      0.410400000000     0.753000000000     0.237600000000     0          
H        H      0.427150000000     0.864400000000     0.243800000000     0          
H        H      0.415500000000     0.900100000000     0.196600000000     0          
H        H      0.395300000000     0.839350000000     0.158600000000     0          
H        H      0.275000000000     0.813700000000     0.465000000000     0          
H        H      0.310300000000     0.806550000000     0.415000000000     0          
H        H      0.366400000000     0.864400000000     0.420400000000     0          
H        H      0.331000000000     0.871450000000     0.470600000000     0          
H        H      0.432550000000     0.875250000000     0.371600000000     0          
H        H      0.448900000000     0.887800000000     0.414400000000     0          
H        H      0.496000000000     0.819700000000     0.423000000000     0          
H        H      0.479650000000     0.807150000000     0.380200000000     0          
H        H      0.483900000000     0.827550000000     0.314400000000     0          
H        H      0.370950000000     0.811100000000     0.308400000000     0          
H        H      0.336500000000     0.822450000000     0.354000000000     0          
H        H      0.397450000000     0.835700000000     0.397000000000     0          
H        H      0.011250000000     0.834450000000     0.258000000000     0          
H        H      0.010750000000     0.801000000000     0.274800000000     0          
H        H      0.046150000000     0.818750000000     0.213800000000     0          
H        H      0.023050000000     0.796300000000     0.214600000000     0          
H        H      0.021500000000     0.829300000000     0.197200000000     0          
H        H      0.394050000000     0.727400000000     0.300000000000     0          
H        H      0.424900000000     0.723300000000     0.278000000000     0          
H        H      0.405200000000     0.685700000000     0.332600000000     0          
H        H      0.434400000000     0.699900000000     0.331000000000     0          
H        H      0.405200000000     0.706800000000     0.355000000000     0          
H        H      0.251050000000     0.505950000000     0.135400000000     0          
H        H      0.284350000000     0.994050000000     0.087400000000     0          
H        H      0.345900000000     0.549200000000     0.087200000000     0          
H        H      0.312650000000     0.561150000000     0.135000000000     0          
H        H      0.299800000000     0.607000000000     0.182200000000     0          
H        H      0.333800000000     0.645450000000     0.141000000000     0          
H        H      0.269550000000     0.695350000000     0.128600000000     0          
H        H      0.235550000000     0.656950000000     0.169800000000     0          
H        H      0.220800000000     0.628200000000     0.237600000000     0          
H        H      0.200950000000     0.513700000000     0.243800000000     0          
H        H      0.236200000000     0.501600000000     0.196600000000     0          
H        H      0.275400000000     0.581350000000     0.158600000000     0          
H        H      0.242500000000     0.953800000000     0.465000000000     0          
H        H      0.232200000000     0.985950000000     0.415000000000     0          
H        H      0.173400000000     0.925400000000     0.420400000000     0          
H        H      0.183700000000     0.893250000000     0.470600000000     0          
H        H      0.131650000000     0.938950000000     0.371600000000     0          
H        H      0.093900000000     0.905000000000     0.414400000000     0          
H        H      0.042500000000     0.968800000000     0.423000000000     0          
H        H      0.080250000000     0.502750000000     0.380200000000     0          
H        H      0.108900000000     0.515250000000     0.314400000000     0          
H        H      0.224850000000     0.534700000000     0.308400000000     0          
H        H      0.236500000000     0.500550000000     0.354000000000     0          
H        H      0.154050000000     0.965800000000     0.397000000000     0          
H        H      0.109750000000     0.536550000000     0.258000000000     0          
H        H      0.101850000000     0.561600000000     0.274800000000     0          
H        H      0.096950000000     0.574350000000     0.213800000000     0          
H        H      0.119650000000     0.596400000000     0.214600000000     0          
H        H      0.129900000000     0.572100000000     0.197200000000     0          
H        H      0.205950000000     0.622600000000     0.300000000000     0          
H        H      0.186100000000     0.637700000000     0.278000000000     0          
H        H      0.178500000000     0.648000000000     0.332600000000     0          
H        H      0.150100000000     0.634600000000     0.331000000000     0          
H        H      0.167300000000     0.615700000000     0.355000000000     0          
H        H      0.426350000000     0.751050000000     0.635400000000     0          
H        H      0.462250000000     0.784350000000     0.587400000000     0          
H        H      0.407200000000     0.845900000000     0.587200000000     0          
H        H      0.371350000000     0.812650000000     0.635000000000     0          
H        H      0.301900000000     0.799800000000     0.682200000000     0          
H        H      0.284050000000     0.833800000000     0.641000000000     0          
H        H      0.240350000000     0.769550000000     0.628600000000     0          
H        H      0.258150000000     0.735550000000     0.669800000000     0          
H        H      0.253000000000     0.720800000000     0.737600000000     0          
H        H      0.364400000000     0.700950000000     0.743800000000     0          
H        H      0.400100000000     0.736200000000     0.696600000000     0          
H        H      0.339350000000     0.775400000000     0.658600000000     0          
H        H      0.313700000000     0.742500000000     0.965000000000     0          
H        H      0.306550000000     0.732200000000     0.915000000000     0          
H        H      0.364400000000     0.673400000000     0.920400000000     0          
H        H      0.371450000000     0.683700000000     0.970600000000     0          
H        H      0.375250000000     0.631650000000     0.871600000000     0          
H        H      0.387800000000     0.593900000000     0.914400000000     0          
H        H      0.319700000000     0.542500000000     0.923000000000     0          
H        H      0.307150000000     0.580250000000     0.880200000000     0          
H        H      0.327550000000     0.608900000000     0.814400000000     0          
H        H      0.311100000000     0.724850000000     0.808400000000     0          
H        H      0.322450000000     0.736500000000     0.854000000000     0          
H        H      0.335700000000     0.654050000000     0.897000000000     0          
H        H      0.334450000000     0.609750000000     0.758000000000     0          
H        H      0.301000000000     0.601850000000     0.774800000000     0          
H        H      0.318750000000     0.596950000000     0.713800000000     0          
H        H      0.296300000000     0.619650000000     0.714600000000     0          
H        H      0.329300000000     0.629900000000     0.697200000000     0          
H        H      0.227400000000     0.705950000000     0.800000000000     0          
H        H      0.223300000000     0.686100000000     0.778000000000     0          
H        H      0.185700000000     0.678500000000     0.832600000000     0          
H        H      0.199900000000     0.650100000000     0.831000000000     0          
H        H      0.206800000000     0.667300000000     0.855000000000     0          
H        H      0.005950000000     0.931250000000     0.635400000000     0          
H        H      0.494050000000     0.921950000000     0.587400000000     0          
H        H      0.049200000000     0.860500000000     0.587200000000     0          
H        H      0.061150000000     0.869850000000     0.635000000000     0          
H        H      0.107000000000     0.859100000000     0.682200000000     0          
H        H      0.145450000000     0.845700000000     0.641000000000     0          
H        H      0.195350000000     0.916150000000     0.628600000000     0          
H        H      0.156950000000     0.929550000000     0.669800000000     0          
H        H      0.128200000000     0.910400000000     0.737600000000     0          
H        H      0.013700000000     0.927150000000     0.743800000000     0          
H        H      0.001600000000     0.915500000000     0.696600000000     0          
H        H      0.081350000000     0.895300000000     0.658600000000     0          
H        H      0.453800000000     0.775000000000     0.965000000000     0          
H        H      0.485950000000     0.810300000000     0.915000000000     0          
H        H      0.425400000000     0.866400000000     0.920400000000     0          
H        H      0.393250000000     0.831000000000     0.970600000000     0          
H        H      0.438950000000     0.932550000000     0.871600000000     0          
H        H      0.405000000000     0.948900000000     0.914400000000     0          
H        H      0.468800000000     0.996000000000     0.923000000000     0          
H        H      0.002750000000     0.979650000000     0.880200000000     0          
H        H      0.015250000000     0.983900000000     0.814400000000     0          
H        H      0.034700000000     0.870950000000     0.808400000000     0          
H        H      0.000550000000     0.836500000000     0.854000000000     0          
H        H      0.465800000000     0.897450000000     0.897000000000     0          
H        H      0.036550000000     0.511250000000     0.758000000000     0          
H        H      0.061600000000     0.510750000000     0.774800000000     0          
H        H      0.074350000000     0.546150000000     0.713800000000     0          
H        H      0.096400000000     0.523050000000     0.714600000000     0          
H        H      0.072100000000     0.521500000000     0.697200000000     0          
H        H      0.122600000000     0.894050000000     0.800000000000     0          
H        H      0.137700000000     0.924900000000     0.778000000000     0          
H        H      0.148000000000     0.905200000000     0.832600000000     0          
H        H      0.134600000000     0.934400000000     0.831000000000     0          
H        H      0.115700000000     0.905200000000     0.855000000000     0          
C        C      0.401525000000     0.895175000000     0.140100000000     0          
C        C      0.417195000000     0.922560000000     0.125760000000     0          
C        C      0.411575000000     0.944175000000     0.096900000000     0          
C        C      0.390255000000     0.938405000000     0.082380000000     0          
C        C      0.374580000000     0.911020000000     0.096720000000     0          
C        C      0.380205000000     0.889405000000     0.125580000000     0          
C        C      0.378875000000     0.754825000000     0.096700000000     0          
C        C      0.395705000000     0.781855000000     0.180180000000     0          
C        C      0.370410000000     0.789665000000     0.171560000000     0          
C        C      0.362345000000     0.778905000000     0.146780000000     0          
C        C      0.379540000000     0.760340000000     0.130640000000     0          
C        C      0.404835000000     0.752570000000     0.139260000000     0          
C        C      0.412910000000     0.763345000000     0.164020000000     0          
C        C      0.274860000000     0.850460000000     0.501360000000     0          
C        C      0.422395000000     0.809695000000     0.260020000000     0          
C        C      0.420625000000     0.780525000000     0.262100000000     0          
C        C      0.411550000000     0.772230000000     0.236200000000     0          
C        C      0.404195000000     0.793145000000     0.208220000000     0          
C        C      0.405970000000     0.822320000000     0.206120000000     0          
C        C      0.415040000000     0.830575000000     0.232040000000     0          
C        C      0.419965000000     0.859065000000     0.227540000000     0          
C        C      0.414160000000     0.880810000000     0.198160000000     0          
C        C      0.406395000000     0.872245000000     0.172220000000     0          
C        C      0.401575000000     0.844325000000     0.175900000000     0          
C        C      0.299360000000     0.843310000000     0.472960000000     0          
C        C      0.293125000000     0.823745000000     0.456220000000     0          
C        C      0.314445000000     0.819445000000     0.426020000000     0          
C        C      0.341960000000     0.834710000000     0.412560000000     0          
C        C      0.348210000000     0.854275000000     0.429300000000     0          
C        C      0.326925000000     0.858575000000     0.459500000000     0          
C        C      0.486505000000     0.864355000000     0.450380000000     0          
C        C      0.454435000000     0.839935000000     0.371460000000     0          
C        C      0.445155000000     0.864205000000     0.381780000000     0          
C        C      0.455000000000     0.871800000000     0.407600000000     0          
C        C      0.474120000000     0.855020000000     0.423120000000     0          
C        C      0.483375000000     0.830745000000     0.412820000000     0          
C        C      0.473555000000     0.823205000000     0.386980000000     0          
C        C      0.388090000000     0.957440000000     0.049840000000     0          
C        C      0.427380000000     0.815180000000     0.291880000000     0          
C        C      0.456580000000     0.817630000000     0.289480000000     0          
C        C      0.464615000000     0.825930000000     0.316080000000     0          
C        C      0.443425000000     0.831875000000     0.345100000000     0          
C        C      0.414220000000     0.829470000000     0.347520000000     0          
C        C      0.406190000000     0.821125000000     0.320900000000     0          
C        C      0.376425000000     0.817575000000     0.325100000000     0          
C        C      0.355705000000     0.823305000000     0.352780000000     0          
C        C      0.364235000000     0.830635000000     0.379660000000     0          
C        C      0.392540000000     0.832440000000     0.377840000000     0          
C        C      0.006650000000     0.816150000000     0.255400000000     0          
C        C      0.026300000000     0.815000000000     0.216400000000     0          
C        C      0.413850000000     0.727900000000     0.299800000000     0          
C        C      0.414750000000     0.702800000000     0.332600000000     0          
C        C      0.278425000000     0.534775000000     0.140100000000     0          
C        C      0.269925000000     0.514560000000     0.125760000000     0          
C        C      0.289975000000     0.507375000000     0.096900000000     0          
C        C      0.318555000000     0.520405000000     0.082380000000     0          
C        C      0.327060000000     0.540620000000     0.096720000000     0          
C        C      0.307005000000     0.547805000000     0.125580000000     0          
C        C      0.322775000000     0.696825000000     0.096700000000     0          
C        C      0.264205000000     0.628055000000     0.180180000000     0          
C        C      0.293810000000     0.624555000000     0.171560000000     0          
C        C      0.314265000000     0.647705000000     0.146780000000     0          
C        C      0.305140000000     0.674340000000     0.130640000000     0          
C        C      0.275535000000     0.677800000000     0.139260000000     0          
C        C      0.255080000000     0.654645000000     0.164020000000     0          
C        C      0.224460000000     0.898860000000     0.501360000000     0          
C        C      0.197595000000     0.560295000000     0.260020000000     0          
C        C      0.198325000000     0.588425000000     0.262100000000     0          
C        C      0.220350000000     0.609670000000     0.236200000000     0          
C        C      0.241695000000     0.602745000000     0.208220000000     0          
C        C      0.240970000000     0.574620000000     0.206120000000     0          
C        C      0.218940000000     0.553405000000     0.232040000000     0          
C        C      0.216265000000     0.527165000000     0.227540000000     0          
C        C      0.236760000000     0.520110000000     0.198160000000     0          
C        C      0.257495000000     0.541645000000     0.172220000000     0          
C        C      0.260475000000     0.567725000000     0.175900000000     0          
C        C      0.214160000000     0.920210000000     0.472960000000     0          
C        C      0.228765000000     0.948145000000     0.456220000000     0          
C        C      0.222545000000     0.967545000000     0.426020000000     0          
C        C      0.201760000000     0.959010000000     0.412560000000     0          
C        C      0.187140000000     0.931075000000     0.429300000000     0          
C        C      0.193325000000     0.911675000000     0.459500000000     0          
C        C      0.038305000000     0.910455000000     0.450380000000     0          
C        C      0.109835000000     0.974335000000     0.371460000000     0          
C        C      0.113955000000     0.944905000000     0.381780000000     0          
C        C      0.091200000000     0.924400000000     0.407600000000     0          
C        C      0.064320000000     0.933420000000     0.423120000000     0          
C        C      0.060215000000     0.962845000000     0.412820000000     0          
C        C      0.082955000000     0.983305000000     0.386980000000     0          
C        C      0.336990000000     0.517640000000     0.049840000000     0          
C        C      0.176680000000     0.538880000000     0.291880000000     0          
C        C      0.148680000000     0.537630000000     0.289480000000     0          
C        C      0.127345000000     0.516030000000     0.316080000000     0          
C        C      0.134025000000     0.995575000000     0.345100000000     0          
C        C      0.162020000000     0.996770000000     0.347520000000     0          
C        C      0.183360000000     0.518425000000     0.320900000000     0          
C        C      0.211025000000     0.519875000000     0.325100000000     0          
C        C      0.217905000000     0.500305000000     0.352780000000     0          
C        C      0.195935000000     0.979535000000     0.379660000000     0          
C        C      0.168540000000     0.978640000000     0.377840000000     0          
C        C      0.115650000000     0.556150000000     0.255400000000     0          
C        C      0.115500000000     0.576800000000     0.216400000000     0          
C        C      0.186250000000     0.622200000000     0.299800000000     0          
C        C      0.168950000000     0.630900000000     0.332600000000     0          
C        C      0.395175000000     0.778425000000     0.640100000000     0          
C        C      0.422560000000     0.769925000000     0.625760000000     0          
C        C      0.444175000000     0.789975000000     0.596900000000     0          
C        C      0.438405000000     0.818555000000     0.582380000000     0          
C        C      0.411020000000     0.827060000000     0.596720000000     0          
C        C      0.389405000000     0.807005000000     0.625580000000     0          
C        C      0.254825000000     0.822775000000     0.596700000000     0          
C        C      0.281855000000     0.764205000000     0.680180000000     0          
C        C      0.289665000000     0.793810000000     0.671560000000     0          
C        C      0.278905000000     0.814265000000     0.646780000000     0          
C        C      0.260340000000     0.805140000000     0.630640000000     0          
C        C      0.252570000000     0.775535000000     0.639260000000     0          
C        C      0.263345000000     0.755080000000     0.664020000000     0          
C        C      0.350460000000     0.724460000000     0.001360000000     0          
C        C      0.309695000000     0.697595000000     0.760020000000     0          
C        C      0.280525000000     0.698325000000     0.762100000000     0          
C        C      0.272230000000     0.720350000000     0.736200000000     0          
C        C      0.293145000000     0.741695000000     0.708220000000     0          
C        C      0.322320000000     0.740970000000     0.706120000000     0          
C        C      0.330575000000     0.718940000000     0.732040000000     0          
C        C      0.359065000000     0.716265000000     0.727540000000     0          
C        C      0.380810000000     0.736760000000     0.698160000000     0          
C        C      0.372245000000     0.757495000000     0.672220000000     0          
C        C      0.344325000000     0.760475000000     0.675900000000     0          
C        C      0.343310000000     0.714160000000     0.972960000000     0          
C        C      0.323745000000     0.728765000000     0.956220000000     0          
C        C      0.319445000000     0.722545000000     0.926020000000     0          
C        C      0.334710000000     0.701760000000     0.912560000000     0          
C        C      0.354275000000     0.687140000000     0.929300000000     0          
C        C      0.358575000000     0.693325000000     0.959500000000     0          
C        C      0.364355000000     0.538305000000     0.950380000000     0          
C        C      0.339935000000     0.609835000000     0.871460000000     0          
C        C      0.364205000000     0.613955000000     0.881780000000     0          
C        C      0.371800000000     0.591200000000     0.907600000000     0          
C        C      0.355020000000     0.564320000000     0.923120000000     0          
C        C      0.330745000000     0.560215000000     0.912820000000     0          
C        C      0.323205000000     0.582955000000     0.886980000000     0          
C        C      0.457440000000     0.836990000000     0.549840000000     0          
C        C      0.315180000000     0.676680000000     0.791880000000     0          
C        C      0.317630000000     0.648680000000     0.789480000000     0          
C        C      0.325930000000     0.627345000000     0.816080000000     0          
C        C      0.331875000000     0.634025000000     0.845100000000     0          
C        C      0.329470000000     0.662020000000     0.847520000000     0          
C        C      0.321125000000     0.683360000000     0.820900000000     0          
C        C      0.317575000000     0.711025000000     0.825100000000     0          
C        C      0.323305000000     0.717905000000     0.852780000000     0          
C        C      0.330635000000     0.695935000000     0.879660000000     0          
C        C      0.332440000000     0.668540000000     0.877840000000     0          
C        C      0.316150000000     0.615650000000     0.755400000000     0          
C        C      0.315000000000     0.615500000000     0.716400000000     0          
C        C      0.227900000000     0.686250000000     0.799800000000     0          
C        C      0.202800000000     0.668950000000     0.832600000000     0          
C        C      0.034775000000     0.901525000000     0.640100000000     0          
C        C      0.014560000000     0.917195000000     0.625760000000     0          
C        C      0.007375000000     0.911575000000     0.596900000000     0          
C        C      0.020405000000     0.890255000000     0.582380000000     0          
C        C      0.040620000000     0.874580000000     0.596720000000     0          
C        C      0.047805000000     0.880205000000     0.625580000000     0          
C        C      0.196825000000     0.878875000000     0.596700000000     0          
C        C      0.128055000000     0.895705000000     0.680180000000     0          
C        C      0.124555000000     0.870410000000     0.671560000000     0          
C        C      0.147705000000     0.862345000000     0.646780000000     0          
C        C      0.174340000000     0.879540000000     0.630640000000     0          
C        C      0.177800000000     0.904835000000     0.639260000000     0          
C        C      0.154645000000     0.912910000000     0.664020000000     0          
C        C      0.398860000000     0.774860000000     0.001360000000     0          
C        C      0.060295000000     0.922395000000     0.760020000000     0          
C        C      0.088425000000     0.920625000000     0.762100000000     0          
C        C      0.109670000000     0.911550000000     0.736200000000     0          
C        C      0.102745000000     0.904195000000     0.708220000000     0          
C        C      0.074620000000     0.905970000000     0.706120000000     0          
C        C      0.053405000000     0.915040000000     0.732040000000     0          
C        C      0.027165000000     0.919965000000     0.727540000000     0          
C        C      0.020110000000     0.914160000000     0.698160000000     0          
C        C      0.041645000000     0.906395000000     0.672220000000     0          
C        C      0.067725000000     0.901575000000     0.675900000000     0          
C        C      0.420210000000     0.799360000000     0.972960000000     0          
C        C      0.448145000000     0.793125000000     0.956220000000     0          
C        C      0.467545000000     0.814445000000     0.926020000000     0          
C        C      0.459010000000     0.841960000000     0.912560000000     0          
C        C      0.431075000000     0.848210000000     0.929300000000     0          
C        C      0.411675000000     0.826925000000     0.959500000000     0          
C        C      0.410455000000     0.986505000000     0.950380000000     0          
C        C      0.474335000000     0.954435000000     0.871460000000     0          
C        C      0.444905000000     0.945155000000     0.881780000000     0          
C        C      0.424400000000     0.955000000000     0.907600000000     0          
C        C      0.433420000000     0.974120000000     0.923120000000     0          
C        C      0.462845000000     0.983375000000     0.912820000000     0          
C        C      0.483305000000     0.973555000000     0.886980000000     0          
C        C      0.017640000000     0.888090000000     0.549840000000     0          
C        C      0.038880000000     0.927380000000     0.791880000000     0          
C        C      0.037630000000     0.956580000000     0.789480000000     0          
C        C      0.016030000000     0.964615000000     0.816080000000     0          
C        C      0.495575000000     0.943425000000     0.845100000000     0          
C        C      0.496770000000     0.914220000000     0.847520000000     0          
C        C      0.018425000000     0.906190000000     0.820900000000     0          
C        C      0.019875000000     0.876425000000     0.825100000000     0          
C        C      0.000305000000     0.855705000000     0.852780000000     0          
C        C      0.479535000000     0.864235000000     0.879660000000     0          
C        C      0.478640000000     0.892540000000     0.877840000000     0          
C        C      0.056150000000     0.506650000000     0.755400000000     0          
C        C      0.076800000000     0.526300000000     0.716400000000     0          
C        C      0.122200000000     0.913850000000     0.799800000000     0          
C        C      0.130900000000     0.914750000000     0.832600000000     0          
O        O      0.388505000000     0.734305000000     0.088580000000     0          
O        O      0.251365000000     0.836015000000     0.511740000000     0          
O        O      0.400530000000     0.984930000000     0.038680000000     0          
O        O      0.003860000000     0.847560000000     0.461760000000     0          
O        O      0.474425000000     0.882975000000     0.461300000000     0          
O        O      0.366395000000     0.954295000000     0.037020000000     0          
O        O      0.353615000000     0.763595000000     0.089740000000     0          
O        O      0.282955000000     0.868255000000     0.512780000000     0          
O        O      0.423290000000     0.758990000000     0.292640000000     0          
O        O      0.475265000000     0.812565000000     0.259740000000     0          
O        O      0.317205000000     0.721405000000     0.088580000000     0          
O        O      0.242765000000     0.908115000000     0.511740000000     0          
O        O      0.330130000000     0.995730000000     0.038680000000     0          
O        O      0.015260000000     0.921560000000     0.461760000000     0          
O        O      0.044925000000     0.886375000000     0.461300000000     0          
O        O      0.365095000000     0.527195000000     0.037020000000     0          
O        O      0.351515000000     0.691535000000     0.089740000000     0          
O        O      0.210655000000     0.875355000000     0.512780000000     0          
O        O      0.180390000000     0.594690000000     0.292640000000     0          
O        O      0.144865000000     0.557565000000     0.259740000000     0          
O        O      0.234305000000     0.817205000000     0.588580000000     0          
O        O      0.336015000000     0.742765000000     0.011740000000     0          
O        O      0.484930000000     0.830130000000     0.538680000000     0          
O        O      0.347560000000     0.515260000000     0.961760000000     0          
O        O      0.382975000000     0.544925000000     0.961300000000     0          
O        O      0.454295000000     0.865095000000     0.537020000000     0          
O        O      0.263595000000     0.851515000000     0.589740000000     0          
O        O      0.368255000000     0.710655000000     0.012780000000     0          
O        O      0.258990000000     0.680390000000     0.792640000000     0          
O        O      0.312565000000     0.644865000000     0.759740000000     0          
O        O      0.221405000000     0.888505000000     0.588580000000     0          
O        O      0.408115000000     0.751365000000     0.011740000000     0          
O        O      0.495730000000     0.900530000000     0.538680000000     0          
O        O      0.421560000000     0.503860000000     0.961760000000     0          
O        O      0.386375000000     0.974425000000     0.961300000000     0          
O        O      0.027195000000     0.866395000000     0.537020000000     0          
O        O      0.191535000000     0.853615000000     0.589740000000     0          
O        O      0.375355000000     0.782955000000     0.012780000000     0          
O        O      0.094690000000     0.923290000000     0.792640000000     0          
O        O      0.057565000000     0.975265000000     0.759740000000     0          
Cu       Cu     0.617940000000     0.280795000000     0.948100000000     0          
Cu       Cu     0.604885000000     0.482380000000     0.000240000000     0          
Cu       Cu     0.658010000000     0.245155000000     0.948100000000     0          
Cu       Cu     0.644995000000     0.017500000000     0.000240000000     0          
Cu       Cu     0.780795000000     0.158010000000     0.448100000000     0          
Cu       Cu     0.982380000000     0.144995000000     0.500240000000     0          
Cu       Cu     0.745155000000     0.117940000000     0.448100000000     0          
Cu       Cu     0.517500000000     0.104885000000     0.500240000000     0          
H        H      0.568750000000     0.073650000000     0.864600000000     0          
H        H      0.578050000000     0.037750000000     0.912600000000     0          
H        H      0.639500000000     0.092800000000     0.912800000000     0          
H        H      0.630150000000     0.128650000000     0.865000000000     0          
H        H      0.640900000000     0.198100000000     0.817800000000     0          
H        H      0.654300000000     0.215950000000     0.859000000000     0          
H        H      0.583850000000     0.259650000000     0.871400000000     0          
H        H      0.570450000000     0.241850000000     0.830200000000     0          
H        H      0.589600000000     0.247000000000     0.762400000000     0          
H        H      0.572850000000     0.135600000000     0.756200000000     0          
H        H      0.584500000000     0.099900000000     0.803400000000     0          
H        H      0.604700000000     0.160650000000     0.841400000000     0          
H        H      0.725000000000     0.186300000000     0.535000000000     0          
H        H      0.689700000000     0.193450000000     0.585000000000     0          
H        H      0.633600000000     0.135600000000     0.579600000000     0          
H        H      0.669000000000     0.128550000000     0.529400000000     0          
H        H      0.567450000000     0.124750000000     0.628400000000     0          
H        H      0.551100000000     0.112200000000     0.585600000000     0          
H        H      0.504000000000     0.180300000000     0.577000000000     0          
H        H      0.520350000000     0.192850000000     0.619800000000     0          
H        H      0.516100000000     0.172450000000     0.685600000000     0          
H        H      0.629050000000     0.188900000000     0.691600000000     0          
H        H      0.663500000000     0.177550000000     0.646000000000     0          
H        H      0.602550000000     0.164300000000     0.603000000000     0          
H        H      0.988750000000     0.165550000000     0.742000000000     0          
H        H      0.989250000000     0.199000000000     0.725200000000     0          
H        H      0.953850000000     0.181250000000     0.786200000000     0          
H        H      0.976950000000     0.203700000000     0.785400000000     0          
H        H      0.978500000000     0.170700000000     0.802800000000     0          
H        H      0.605950000000     0.272600000000     0.700000000000     0          
H        H      0.575100000000     0.276700000000     0.722000000000     0          
H        H      0.594800000000     0.314300000000     0.667400000000     0          
H        H      0.565600000000     0.300100000000     0.669000000000     0          
H        H      0.594800000000     0.293200000000     0.645000000000     0          
H        H      0.748950000000     0.494050000000     0.864600000000     0          
H        H      0.715650000000     0.005950000000     0.912600000000     0          
H        H      0.654100000000     0.450800000000     0.912800000000     0          
H        H      0.687350000000     0.438850000000     0.865000000000     0          
H        H      0.700200000000     0.393000000000     0.817800000000     0          
H        H      0.666200000000     0.354550000000     0.859000000000     0          
H        H      0.730450000000     0.304650000000     0.871400000000     0          
H        H      0.764450000000     0.343050000000     0.830200000000     0          
H        H      0.779200000000     0.371800000000     0.762400000000     0          
H        H      0.799050000000     0.486300000000     0.756200000000     0          
H        H      0.763800000000     0.498400000000     0.803400000000     0          
H        H      0.724600000000     0.418650000000     0.841400000000     0          
H        H      0.757500000000     0.046200000000     0.535000000000     0          
H        H      0.767800000000     0.014050000000     0.585000000000     0          
H        H      0.826600000000     0.074600000000     0.579600000000     0          
H        H      0.816300000000     0.106750000000     0.529400000000     0          
H        H      0.868350000000     0.061050000000     0.628400000000     0          
H        H      0.906100000000     0.095000000000     0.585600000000     0          
H        H      0.957500000000     0.031200000000     0.577000000000     0          
H        H      0.919750000000     0.497250000000     0.619800000000     0          
H        H      0.891100000000     0.484750000000     0.685600000000     0          
H        H      0.775150000000     0.465300000000     0.691600000000     0          
H        H      0.763500000000     0.499450000000     0.646000000000     0          
H        H      0.845950000000     0.034200000000     0.603000000000     0          
H        H      0.890250000000     0.463450000000     0.742000000000     0          
H        H      0.898150000000     0.438400000000     0.725200000000     0          
H        H      0.903050000000     0.425650000000     0.786200000000     0          
H        H      0.880350000000     0.403600000000     0.785400000000     0          
H        H      0.870100000000     0.427900000000     0.802800000000     0          
H        H      0.794050000000     0.377400000000     0.700000000000     0          
H        H      0.813900000000     0.362300000000     0.722000000000     0          
H        H      0.821500000000     0.352000000000     0.667400000000     0          
H        H      0.849900000000     0.365400000000     0.669000000000     0          
H        H      0.832700000000     0.384300000000     0.645000000000     0          
H        H      0.573650000000     0.248950000000     0.364600000000     0          
H        H      0.537750000000     0.215650000000     0.412600000000     0          
H        H      0.592800000000     0.154100000000     0.412800000000     0          
H        H      0.628650000000     0.187350000000     0.365000000000     0          
H        H      0.698100000000     0.200200000000     0.317800000000     0          
H        H      0.715950000000     0.166200000000     0.359000000000     0          
H        H      0.759650000000     0.230450000000     0.371400000000     0          
H        H      0.741850000000     0.264450000000     0.330200000000     0          
H        H      0.747000000000     0.279200000000     0.262400000000     0          
H        H      0.635600000000     0.299050000000     0.256200000000     0          
H        H      0.599900000000     0.263800000000     0.303400000000     0          
H        H      0.660650000000     0.224600000000     0.341400000000     0          
H        H      0.686300000000     0.257500000000     0.035000000000     0          
H        H      0.693450000000     0.267800000000     0.085000000000     0          
H        H      0.635600000000     0.326600000000     0.079600000000     0          
H        H      0.628550000000     0.316300000000     0.029400000000     0          
H        H      0.624750000000     0.368350000000     0.128400000000     0          
H        H      0.612200000000     0.406100000000     0.085600000000     0          
H        H      0.680300000000     0.457500000000     0.077000000000     0          
H        H      0.692850000000     0.419750000000     0.119800000000     0          
H        H      0.672450000000     0.391100000000     0.185600000000     0          
H        H      0.688900000000     0.275150000000     0.191600000000     0          
H        H      0.677550000000     0.263500000000     0.146000000000     0          
H        H      0.664300000000     0.345950000000     0.103000000000     0          
H        H      0.665550000000     0.390250000000     0.242000000000     0          
H        H      0.699000000000     0.398150000000     0.225200000000     0          
H        H      0.681250000000     0.403050000000     0.286200000000     0          
H        H      0.703700000000     0.380350000000     0.285400000000     0          
H        H      0.670700000000     0.370100000000     0.302800000000     0          
H        H      0.772600000000     0.294050000000     0.200000000000     0          
H        H      0.776700000000     0.313900000000     0.222000000000     0          
H        H      0.814300000000     0.321500000000     0.167400000000     0          
H        H      0.800100000000     0.349900000000     0.169000000000     0          
H        H      0.793200000000     0.332700000000     0.145000000000     0          
H        H      0.994050000000     0.068750000000     0.364600000000     0          
H        H      0.505950000000     0.078050000000     0.412600000000     0          
H        H      0.950800000000     0.139500000000     0.412800000000     0          
H        H      0.938850000000     0.130150000000     0.365000000000     0          
H        H      0.893000000000     0.140900000000     0.317800000000     0          
H        H      0.854550000000     0.154300000000     0.359000000000     0          
H        H      0.804650000000     0.083850000000     0.371400000000     0          
H        H      0.843050000000     0.070450000000     0.330200000000     0          
H        H      0.871800000000     0.089600000000     0.262400000000     0          
H        H      0.986300000000     0.072850000000     0.256200000000     0          
H        H      0.998400000000     0.084500000000     0.303400000000     0          
H        H      0.918650000000     0.104700000000     0.341400000000     0          
H        H      0.546200000000     0.225000000000     0.035000000000     0          
H        H      0.514050000000     0.189700000000     0.085000000000     0          
H        H      0.574600000000     0.133600000000     0.079600000000     0          
H        H      0.606750000000     0.169000000000     0.029400000000     0          
H        H      0.561050000000     0.067450000000     0.128400000000     0          
H        H      0.595000000000     0.051100000000     0.085600000000     0          
H        H      0.531200000000     0.004000000000     0.077000000000     0          
H        H      0.997250000000     0.020350000000     0.119800000000     0          
H        H      0.984750000000     0.016100000000     0.185600000000     0          
H        H      0.965300000000     0.129050000000     0.191600000000     0          
H        H      0.999450000000     0.163500000000     0.146000000000     0          
H        H      0.534200000000     0.102550000000     0.103000000000     0          
H        H      0.963450000000     0.488750000000     0.242000000000     0          
H        H      0.938400000000     0.489250000000     0.225200000000     0          
H        H      0.925650000000     0.453850000000     0.286200000000     0          
H        H      0.903600000000     0.476950000000     0.285400000000     0          
H        H      0.927900000000     0.478500000000     0.302800000000     0          
H        H      0.877400000000     0.105950000000     0.200000000000     0          
H        H      0.862300000000     0.075100000000     0.222000000000     0          
H        H      0.852000000000     0.094800000000     0.167400000000     0          
H        H      0.865400000000     0.065600000000     0.169000000000     0          
H        H      0.884300000000     0.094800000000     0.145000000000     0          
C        C      0.598475000000     0.104825000000     0.859900000000     0          
C        C      0.582805000000     0.077440000000     0.874240000000     0          
C        C      0.588425000000     0.055825000000     0.903100000000     0          
C        C      0.609745000000     0.061595000000     0.917620000000     0          
C        C      0.625420000000     0.088980000000     0.903280000000     0          
C        C      0.619795000000     0.110595000000     0.874420000000     0          
C        C      0.621125000000     0.245175000000     0.903300000000     0          
C        C      0.604295000000     0.218145000000     0.819820000000     0          
C        C      0.629590000000     0.210335000000     0.828440000000     0          
C        C      0.637655000000     0.221095000000     0.853220000000     0          
C        C      0.620460000000     0.239660000000     0.869360000000     0          
C        C      0.595165000000     0.247430000000     0.860740000000     0          
C        C      0.587090000000     0.236655000000     0.835980000000     0          
C        C      0.725140000000     0.149540000000     0.498640000000     0          
C        C      0.577605000000     0.190305000000     0.739980000000     0          
C        C      0.579375000000     0.219475000000     0.737900000000     0          
C        C      0.588450000000     0.227770000000     0.763800000000     0          
C        C      0.595805000000     0.206855000000     0.791780000000     0          
C        C      0.594030000000     0.177680000000     0.793880000000     0          
C        C      0.584960000000     0.169425000000     0.767960000000     0          
C        C      0.580035000000     0.140935000000     0.772460000000     0          
C        C      0.585840000000     0.119190000000     0.801840000000     0          
C        C      0.593605000000     0.127755000000     0.827780000000     0          
C        C      0.598425000000     0.155675000000     0.824100000000     0          
C        C      0.700640000000     0.156690000000     0.527040000000     0          
C        C      0.706875000000     0.176255000000     0.543780000000     0          
C        C      0.685555000000     0.180555000000     0.573980000000     0          
C        C      0.658040000000     0.165290000000     0.587440000000     0          
C        C      0.651790000000     0.145725000000     0.570700000000     0          
C        C      0.673075000000     0.141425000000     0.540500000000     0          
C        C      0.513495000000     0.135645000000     0.549620000000     0          
C        C      0.545565000000     0.160065000000     0.628540000000     0          
C        C      0.554845000000     0.135795000000     0.618220000000     0          
C        C      0.545000000000     0.128200000000     0.592400000000     0          
C        C      0.525880000000     0.144980000000     0.576880000000     0          
C        C      0.516625000000     0.169255000000     0.587180000000     0          
C        C      0.526445000000     0.176795000000     0.613020000000     0          
C        C      0.611910000000     0.042560000000     0.950160000000     0          
C        C      0.572620000000     0.184820000000     0.708120000000     0          
C        C      0.543420000000     0.182370000000     0.710520000000     0          
C        C      0.535385000000     0.174070000000     0.683920000000     0          
C        C      0.556575000000     0.168125000000     0.654900000000     0          
C        C      0.585780000000     0.170530000000     0.652480000000     0          
C        C      0.593810000000     0.178875000000     0.679100000000     0          
C        C      0.623575000000     0.182425000000     0.674900000000     0          
C        C      0.644295000000     0.176695000000     0.647220000000     0          
C        C      0.635765000000     0.169365000000     0.620340000000     0          
C        C      0.607460000000     0.167560000000     0.622160000000     0          
C        C      0.993350000000     0.183850000000     0.744600000000     0          
C        C      0.973700000000     0.185000000000     0.783600000000     0          
C        C      0.586150000000     0.272100000000     0.700200000000     0          
C        C      0.585250000000     0.297200000000     0.667400000000     0          
C        C      0.721575000000     0.465225000000     0.859900000000     0          
C        C      0.730075000000     0.485440000000     0.874240000000     0          
C        C      0.710025000000     0.492625000000     0.903100000000     0          
C        C      0.681445000000     0.479595000000     0.917620000000     0          
C        C      0.672940000000     0.459380000000     0.903280000000     0          
C        C      0.692995000000     0.452195000000     0.874420000000     0          
C        C      0.677225000000     0.303175000000     0.903300000000     0          
C        C      0.735795000000     0.371945000000     0.819820000000     0          
C        C      0.706190000000     0.375445000000     0.828440000000     0          
C        C      0.685735000000     0.352295000000     0.853220000000     0          
C        C      0.694860000000     0.325660000000     0.869360000000     0          
C        C      0.724465000000     0.322200000000     0.860740000000     0          
C        C      0.744920000000     0.345355000000     0.835980000000     0          
C        C      0.775540000000     0.101140000000     0.498640000000     0          
C        C      0.802405000000     0.439705000000     0.739980000000     0          
C        C      0.801675000000     0.411575000000     0.737900000000     0          
C        C      0.779650000000     0.390330000000     0.763800000000     0          
C        C      0.758305000000     0.397255000000     0.791780000000     0          
C        C      0.759030000000     0.425380000000     0.793880000000     0          
C        C      0.781060000000     0.446595000000     0.767960000000     0          
C        C      0.783735000000     0.472835000000     0.772460000000     0          
C        C      0.763240000000     0.479890000000     0.801840000000     0          
C        C      0.742505000000     0.458355000000     0.827780000000     0          
C        C      0.739525000000     0.432275000000     0.824100000000     0          
C        C      0.785840000000     0.079790000000     0.527040000000     0          
C        C      0.771235000000     0.051855000000     0.543780000000     0          
C        C      0.777455000000     0.032455000000     0.573980000000     0          
C        C      0.798240000000     0.040990000000     0.587440000000     0          
C        C      0.812860000000     0.068925000000     0.570700000000     0          
C        C      0.806675000000     0.088325000000     0.540500000000     0          
C        C      0.961695000000     0.089545000000     0.549620000000     0          
C        C      0.890165000000     0.025665000000     0.628540000000     0          
C        C      0.886045000000     0.055095000000     0.618220000000     0          
C        C      0.908800000000     0.075600000000     0.592400000000     0          
C        C      0.935680000000     0.066580000000     0.576880000000     0          
C        C      0.939785000000     0.037155000000     0.587180000000     0          
C        C      0.917045000000     0.016695000000     0.613020000000     0          
C        C      0.663010000000     0.482360000000     0.950160000000     0          
C        C      0.823320000000     0.461120000000     0.708120000000     0          
C        C      0.851320000000     0.462370000000     0.710520000000     0          
C        C      0.872655000000     0.483970000000     0.683920000000     0          
C        C      0.865975000000     0.004425000000     0.654900000000     0          
C        C      0.837980000000     0.003230000000     0.652480000000     0          
C        C      0.816640000000     0.481575000000     0.679100000000     0          
C        C      0.788975000000     0.480125000000     0.674900000000     0          
C        C      0.782095000000     0.499695000000     0.647220000000     0          
C        C      0.804065000000     0.020465000000     0.620340000000     0          
C        C      0.831460000000     0.021360000000     0.622160000000     0          
C        C      0.884350000000     0.443850000000     0.744600000000     0          
C        C      0.884500000000     0.423200000000     0.783600000000     0          
C        C      0.813750000000     0.377800000000     0.700200000000     0          
C        C      0.831050000000     0.369100000000     0.667400000000     0          
C        C      0.604825000000     0.221575000000     0.359900000000     0          
C        C      0.577440000000     0.230075000000     0.374240000000     0          
C        C      0.555825000000     0.210025000000     0.403100000000     0          
C        C      0.561595000000     0.181445000000     0.417620000000     0          
C        C      0.588980000000     0.172940000000     0.403280000000     0          
C        C      0.610595000000     0.192995000000     0.374420000000     0          
C        C      0.745175000000     0.177225000000     0.403300000000     0          
C        C      0.718145000000     0.235795000000     0.319820000000     0          
C        C      0.710335000000     0.206190000000     0.328440000000     0          
C        C      0.721095000000     0.185735000000     0.353220000000     0          
C        C      0.739660000000     0.194860000000     0.369360000000     0          
C        C      0.747430000000     0.224465000000     0.360740000000     0          
C        C      0.736655000000     0.244920000000     0.335980000000     0          
C        C      0.649540000000     0.275540000000     0.998640000000     0          
C        C      0.690305000000     0.302405000000     0.239980000000     0          
C        C      0.719475000000     0.301675000000     0.237900000000     0          
C        C      0.727770000000     0.279650000000     0.263800000000     0          
C        C      0.706855000000     0.258305000000     0.291780000000     0          
C        C      0.677680000000     0.259030000000     0.293880000000     0          
C        C      0.669425000000     0.281060000000     0.267960000000     0          
C        C      0.640935000000     0.283735000000     0.272460000000     0          
C        C      0.619190000000     0.263240000000     0.301840000000     0          
C        C      0.627755000000     0.242505000000     0.327780000000     0          
C        C      0.655675000000     0.239525000000     0.324100000000     0          
C        C      0.656690000000     0.285840000000     0.027040000000     0          
C        C      0.676255000000     0.271235000000     0.043780000000     0          
C        C      0.680555000000     0.277455000000     0.073980000000     0          
C        C      0.665290000000     0.298240000000     0.087440000000     0          
C        C      0.645725000000     0.312860000000     0.070700000000     0          
C        C      0.641425000000     0.306675000000     0.040500000000     0          
C        C      0.635645000000     0.461695000000     0.049620000000     0          
C        C      0.660065000000     0.390165000000     0.128540000000     0          
C        C      0.635795000000     0.386045000000     0.118220000000     0          
C        C      0.628200000000     0.408800000000     0.092400000000     0          
C        C      0.644980000000     0.435680000000     0.076880000000     0          
C        C      0.669255000000     0.439785000000     0.087180000000     0          
C        C      0.676795000000     0.417045000000     0.113020000000     0          
C        C      0.542560000000     0.163010000000     0.450160000000     0          
C        C      0.684820000000     0.323320000000     0.208120000000     0          
C        C      0.682370000000     0.351320000000     0.210520000000     0          
C        C      0.674070000000     0.372655000000     0.183920000000     0          
C        C      0.668125000000     0.365975000000     0.154900000000     0          
C        C      0.670530000000     0.337980000000     0.152480000000     0          
C        C      0.678875000000     0.316640000000     0.179100000000     0          
C        C      0.682425000000     0.288975000000     0.174900000000     0          
C        C      0.676695000000     0.282095000000     0.147220000000     0          
C        C      0.669365000000     0.304065000000     0.120340000000     0          
C        C      0.667560000000     0.331460000000     0.122160000000     0          
C        C      0.683850000000     0.384350000000     0.244600000000     0          
C        C      0.685000000000     0.384500000000     0.283600000000     0          
C        C      0.772100000000     0.313750000000     0.200200000000     0          
C        C      0.797200000000     0.331050000000     0.167400000000     0          
C        C      0.965225000000     0.098475000000     0.359900000000     0          
C        C      0.985440000000     0.082805000000     0.374240000000     0          
C        C      0.992625000000     0.088425000000     0.403100000000     0          
C        C      0.979595000000     0.109745000000     0.417620000000     0          
C        C      0.959380000000     0.125420000000     0.403280000000     0          
C        C      0.952195000000     0.119795000000     0.374420000000     0          
C        C      0.803175000000     0.121125000000     0.403300000000     0          
C        C      0.871945000000     0.104295000000     0.319820000000     0          
C        C      0.875445000000     0.129590000000     0.328440000000     0          
C        C      0.852295000000     0.137655000000     0.353220000000     0          
C        C      0.825660000000     0.120460000000     0.369360000000     0          
C        C      0.822200000000     0.095165000000     0.360740000000     0          
C        C      0.845355000000     0.087090000000     0.335980000000     0          
C        C      0.601140000000     0.225140000000     0.998640000000     0          
C        C      0.939705000000     0.077605000000     0.239980000000     0          
C        C      0.911575000000     0.079375000000     0.237900000000     0          
C        C      0.890330000000     0.088450000000     0.263800000000     0          
C        C      0.897255000000     0.095805000000     0.291780000000     0          
C        C      0.925380000000     0.094030000000     0.293880000000     0          
C        C      0.946595000000     0.084960000000     0.267960000000     0          
C        C      0.972835000000     0.080035000000     0.272460000000     0          
C        C      0.979890000000     0.085840000000     0.301840000000     0          
C        C      0.958355000000     0.093605000000     0.327780000000     0          
C        C      0.932275000000     0.098425000000     0.324100000000     0          
C        C      0.579790000000     0.200640000000     0.027040000000     0          
C        C      0.551855000000     0.206875000000     0.043780000000     0          
C        C      0.532455000000     0.185555000000     0.073980000000     0          
C        C      0.540990000000     0.158040000000     0.087440000000     0          
C        C      0.568925000000     0.151790000000     0.070700000000     0          
C        C      0.588325000000     0.173075000000     0.040500000000     0          
C        C      0.589545000000     0.013495000000     0.049620000000     0          
C        C      0.525665000000     0.045565000000     0.128540000000     0          
C        C      0.555095000000     0.054845000000     0.118220000000     0          
C        C      0.575600000000     0.045000000000     0.092400000000     0          
C        C      0.566580000000     0.025880000000     0.076880000000     0          
C        C      0.537155000000     0.016625000000     0.087180000000     0          
C        C      0.516695000000     0.026445000000     0.113020000000     0          
C        C      0.982360000000     0.111910000000     0.450160000000     0          
C        C      0.961120000000     0.072620000000     0.208120000000     0          
C        C      0.962370000000     0.043420000000     0.210520000000     0          
C        C      0.983970000000     0.035385000000     0.183920000000     0          
C        C      0.504425000000     0.056575000000     0.154900000000     0          
C        C      0.503230000000     0.085780000000     0.152480000000     0          
C        C      0.981575000000     0.093810000000     0.179100000000     0          
C        C      0.980125000000     0.123575000000     0.174900000000     0          
C        C      0.999695000000     0.144295000000     0.147220000000     0          
C        C      0.520465000000     0.135765000000     0.120340000000     0          
C        C      0.521360000000     0.107460000000     0.122160000000     0          
C        C      0.943850000000     0.493350000000     0.244600000000     0          
C        C      0.923200000000     0.473700000000     0.283600000000     0          
C        C      0.877800000000     0.086150000000     0.200200000000     0          
C        C      0.869100000000     0.085250000000     0.167400000000     0          
O        O      0.611495000000     0.265695000000     0.911420000000     0          
O        O      0.748635000000     0.163985000000     0.488260000000     0          
O        O      0.599470000000     0.015070000000     0.961320000000     0          
O        O      0.996140000000     0.152440000000     0.538240000000     0          
O        O      0.525575000000     0.117025000000     0.538700000000     0          
O        O      0.633605000000     0.045705000000     0.962980000000     0          
O        O      0.646385000000     0.236405000000     0.910260000000     0          
O        O      0.717045000000     0.131745000000     0.487220000000     0          
O        O      0.576710000000     0.241010000000     0.707360000000     0          
O        O      0.524735000000     0.187435000000     0.740260000000     0          
O        O      0.682795000000     0.278595000000     0.911420000000     0          
O        O      0.757235000000     0.091885000000     0.488260000000     0          
O        O      0.669870000000     0.004270000000     0.961320000000     0          
O        O      0.984740000000     0.078440000000     0.538240000000     0          
O        O      0.955075000000     0.113625000000     0.538700000000     0          
O        O      0.634905000000     0.472805000000     0.962980000000     0          
O        O      0.648485000000     0.308465000000     0.910260000000     0          
O        O      0.789345000000     0.124645000000     0.487220000000     0          
O        O      0.819610000000     0.405310000000     0.707360000000     0          
O        O      0.855135000000     0.442435000000     0.740260000000     0          
O        O      0.765695000000     0.182795000000     0.411420000000     0          
O        O      0.663985000000     0.257235000000     0.988260000000     0          
O        O      0.515070000000     0.169870000000     0.461320000000     0          
O        O      0.652440000000     0.484740000000     0.038240000000     0          
O        O      0.617025000000     0.455075000000     0.038700000000     0          
O        O      0.545705000000     0.134905000000     0.462980000000     0          
O        O      0.736405000000     0.148485000000     0.410260000000     0          
O        O      0.631745000000     0.289345000000     0.987220000000     0          
O        O      0.741010000000     0.319610000000     0.207360000000     0          
O        O      0.687435000000     0.355135000000     0.240260000000     0          
O        O      0.778595000000     0.111495000000     0.411420000000     0          
O        O      0.591885000000     0.248635000000     0.988260000000     0          
O        O      0.504270000000     0.099470000000     0.461320000000     0          
O        O      0.578440000000     0.496140000000     0.038240000000     0          
O        O      0.613625000000     0.025575000000     0.038700000000     0          
O        O      0.972805000000     0.133605000000     0.462980000000     0          
O        O      0.808465000000     0.146385000000     0.410260000000     0          
O        O      0.624645000000     0.217045000000     0.987220000000     0          
O        O      0.905310000000     0.076710000000     0.207360000000     0          
O        O      0.942435000000     0.024735000000     0.240260000000     0          
Cu       Cu     0.882060000000     0.219205000000     0.051900000000     0          
Cu       Cu     0.895115000000     0.017620000000     0.999760000000     0          
Cu       Cu     0.841990000000     0.254845000000     0.051900000000     0          
Cu       Cu     0.855005000000     0.482500000000     0.999760000000     0          
Cu       Cu     0.719205000000     0.341990000000     0.551900000000     0          
Cu       Cu     0.517620000000     0.355005000000     0.499760000000     0          
Cu       Cu     0.754845000000     0.382060000000     0.551900000000     0          
Cu       Cu     0.982500000000     0.395115000000     0.499760000000     0          
H        H      0.931250000000     0.426350000000     0.135400000000     0          
H        H      0.921950000000     0.462250000000     0.087400000000     0          
H        H      0.860500000000     0.407200000000     0.087200000000     0          
H        H      0.869850000000     0.371350000000     0.135000000000     0          
H        H      0.859100000000     0.301900000000     0.182200000000     0          
H        H      0.845700000000     0.284050000000     0.141000000000     0          
H        H      0.916150000000     0.240350000000     0.128600000000     0          
H        H      0.929550000000     0.258150000000     0.169800000000     0          
H        H      0.910400000000     0.253000000000     0.237600000000     0          
H        H      0.927150000000     0.364400000000     0.243800000000     0          
H        H      0.915500000000     0.400100000000     0.196600000000     0          
H        H      0.895300000000     0.339350000000     0.158600000000     0          
H        H      0.775000000000     0.313700000000     0.465000000000     0          
H        H      0.810300000000     0.306550000000     0.415000000000     0          
H        H      0.866400000000     0.364400000000     0.420400000000     0          
H        H      0.831000000000     0.371450000000     0.470600000000     0          
H        H      0.932550000000     0.375250000000     0.371600000000     0          
H        H      0.948900000000     0.387800000000     0.414400000000     0          
H        H      0.996000000000     0.319700000000     0.423000000000     0          
H        H      0.979650000000     0.307150000000     0.380200000000     0          
H        H      0.983900000000     0.327550000000     0.314400000000     0          
H        H      0.870950000000     0.311100000000     0.308400000000     0          
H        H      0.836500000000     0.322450000000     0.354000000000     0          
H        H      0.897450000000     0.335700000000     0.397000000000     0          
H        H      0.511250000000     0.334450000000     0.258000000000     0          
H        H      0.510750000000     0.301000000000     0.274800000000     0          
H        H      0.546150000000     0.318750000000     0.213800000000     0          
H        H      0.523050000000     0.296300000000     0.214600000000     0          
H        H      0.521500000000     0.329300000000     0.197200000000     0          
H        H      0.894050000000     0.227400000000     0.300000000000     0          
H        H      0.924900000000     0.223300000000     0.278000000000     0          
H        H      0.905200000000     0.185700000000     0.332600000000     0          
H        H      0.934400000000     0.199900000000     0.331000000000     0          
H        H      0.905200000000     0.206800000000     0.355000000000     0          
H        H      0.751050000000     0.005950000000     0.135400000000     0          
H        H      0.784350000000     0.494050000000     0.087400000000     0          
H        H      0.845900000000     0.049200000000     0.087200000000     0          
H        H      0.812650000000     0.061150000000     0.135000000000     0          
H        H      0.799800000000     0.107000000000     0.182200000000     0          
H        H      0.833800000000     0.145450000000     0.141000000000     0          
H        H      0.769550000000     0.195350000000     0.128600000000     0          
H        H      0.735550000000     0.156950000000     0.169800000000     0          
H        H      0.720800000000     0.128200000000     0.237600000000     0          
H        H      0.700950000000     0.013700000000     0.243800000000     0          
H        H      0.736200000000     0.001600000000     0.196600000000     0          
H        H      0.775400000000     0.081350000000     0.158600000000     0          
H        H      0.742500000000     0.453800000000     0.465000000000     0          
H        H      0.732200000000     0.485950000000     0.415000000000     0          
H        H      0.673400000000     0.425400000000     0.420400000000     0          
H        H      0.683700000000     0.393250000000     0.470600000000     0          
H        H      0.631650000000     0.438950000000     0.371600000000     0          
H        H      0.593900000000     0.405000000000     0.414400000000     0          
H        H      0.542500000000     0.468800000000     0.423000000000     0          
H        H      0.580250000000     0.002750000000     0.380200000000     0          
H        H      0.608900000000     0.015250000000     0.314400000000     0          
H        H      0.724850000000     0.034700000000     0.308400000000     0          
H        H      0.736500000000     0.000550000000     0.354000000000     0          
H        H      0.654050000000     0.465800000000     0.397000000000     0          
H        H      0.609750000000     0.036550000000     0.258000000000     0          
H        H      0.601850000000     0.061600000000     0.274800000000     0          
H        H      0.596950000000     0.074350000000     0.213800000000     0          
H        H      0.619650000000     0.096400000000     0.214600000000     0          
H        H      0.629900000000     0.072100000000     0.197200000000     0          
H        H      0.705950000000     0.122600000000     0.300000000000     0          
H        H      0.686100000000     0.137700000000     0.278000000000     0          
H        H      0.678500000000     0.148000000000     0.332600000000     0          
H        H      0.650100000000     0.134600000000     0.331000000000     0          
H        H      0.667300000000     0.115700000000     0.355000000000     0          
H        H      0.926350000000     0.251050000000     0.635400000000     0          
H        H      0.962250000000     0.284350000000     0.587400000000     0          
H        H      0.907200000000     0.345900000000     0.587200000000     0          
H        H      0.871350000000     0.312650000000     0.635000000000     0          
H        H      0.801900000000     0.299800000000     0.682200000000     0          
H        H      0.784050000000     0.333800000000     0.641000000000     0          
H        H      0.740350000000     0.269550000000     0.628600000000     0          
H        H      0.758150000000     0.235550000000     0.669800000000     0          
H        H      0.753000000000     0.220800000000     0.737600000000     0          
H        H      0.864400000000     0.200950000000     0.743800000000     0          
H        H      0.900100000000     0.236200000000     0.696600000000     0          
H        H      0.839350000000     0.275400000000     0.658600000000     0          
H        H      0.813700000000     0.242500000000     0.965000000000     0          
H        H      0.806550000000     0.232200000000     0.915000000000     0          
H        H      0.864400000000     0.173400000000     0.920400000000     0          
H        H      0.871450000000     0.183700000000     0.970600000000     0          
H        H      0.875250000000     0.131650000000     0.871600000000     0          
H        H      0.887800000000     0.093900000000     0.914400000000     0          
H        H      0.819700000000     0.042500000000     0.923000000000     0          
H        H      0.807150000000     0.080250000000     0.880200000000     0          
H        H      0.827550000000     0.108900000000     0.814400000000     0          
H        H      0.811100000000     0.224850000000     0.808400000000     0          
H        H      0.822450000000     0.236500000000     0.854000000000     0          
H        H      0.835700000000     0.154050000000     0.897000000000     0          
H        H      0.834450000000     0.109750000000     0.758000000000     0          
H        H      0.801000000000     0.101850000000     0.774800000000     0          
H        H      0.818750000000     0.096950000000     0.713800000000     0          
H        H      0.796300000000     0.119650000000     0.714600000000     0          
H        H      0.829300000000     0.129900000000     0.697200000000     0          
H        H      0.727400000000     0.205950000000     0.800000000000     0          
H        H      0.723300000000     0.186100000000     0.778000000000     0          
H        H      0.685700000000     0.178500000000     0.832600000000     0          
H        H      0.699900000000     0.150100000000     0.831000000000     0          
H        H      0.706800000000     0.167300000000     0.855000000000     0          
H        H      0.505950000000     0.431250000000     0.635400000000     0          
H        H      0.994050000000     0.421950000000     0.587400000000     0          
H        H      0.549200000000     0.360500000000     0.587200000000     0          
H        H      0.561150000000     0.369850000000     0.635000000000     0          
H        H      0.607000000000     0.359100000000     0.682200000000     0          
H        H      0.645450000000     0.345700000000     0.641000000000     0          
H        H      0.695350000000     0.416150000000     0.628600000000     0          
H        H      0.656950000000     0.429550000000     0.669800000000     0          
H        H      0.628200000000     0.410400000000     0.737600000000     0          
H        H      0.513700000000     0.427150000000     0.743800000000     0          
H        H      0.501600000000     0.415500000000     0.696600000000     0          
H        H      0.581350000000     0.395300000000     0.658600000000     0          
H        H      0.953800000000     0.275000000000     0.965000000000     0          
H        H      0.985950000000     0.310300000000     0.915000000000     0          
H        H      0.925400000000     0.366400000000     0.920400000000     0          
H        H      0.893250000000     0.331000000000     0.970600000000     0          
H        H      0.938950000000     0.432550000000     0.871600000000     0          
H        H      0.905000000000     0.448900000000     0.914400000000     0          
H        H      0.968800000000     0.496000000000     0.923000000000     0          
H        H      0.502750000000     0.479650000000     0.880200000000     0          
H        H      0.515250000000     0.483900000000     0.814400000000     0          
H        H      0.534700000000     0.370950000000     0.808400000000     0          
H        H      0.500550000000     0.336500000000     0.854000000000     0          
H        H      0.965800000000     0.397450000000     0.897000000000     0          
H        H      0.536550000000     0.011250000000     0.758000000000     0          
H        H      0.561600000000     0.010750000000     0.774800000000     0          
H        H      0.574350000000     0.046150000000     0.713800000000     0          
H        H      0.596400000000     0.023050000000     0.714600000000     0          
H        H      0.572100000000     0.021500000000     0.697200000000     0          
H        H      0.622600000000     0.394050000000     0.800000000000     0          
H        H      0.637700000000     0.424900000000     0.778000000000     0          
H        H      0.648000000000     0.405200000000     0.832600000000     0          
H        H      0.634600000000     0.434400000000     0.831000000000     0          
H        H      0.615700000000     0.405200000000     0.855000000000     0          
C        C      0.901525000000     0.395175000000     0.140100000000     0          
C        C      0.917195000000     0.422560000000     0.125760000000     0          
C        C      0.911575000000     0.444175000000     0.096900000000     0          
C        C      0.890255000000     0.438405000000     0.082380000000     0          
C        C      0.874580000000     0.411020000000     0.096720000000     0          
C        C      0.880205000000     0.389405000000     0.125580000000     0          
C        C      0.878875000000     0.254825000000     0.096700000000     0          
C        C      0.895705000000     0.281855000000     0.180180000000     0          
C        C      0.870410000000     0.289665000000     0.171560000000     0          
C        C      0.862345000000     0.278905000000     0.146780000000     0          
C        C      0.879540000000     0.260340000000     0.130640000000     0          
C        C      0.904835000000     0.252570000000     0.139260000000     0          
C        C      0.912910000000     0.263345000000     0.164020000000     0          
C        C      0.774860000000     0.350460000000     0.501360000000     0          
C        C      0.922395000000     0.309695000000     0.260020000000     0          
C        C      0.920625000000     0.280525000000     0.262100000000     0          
C        C      0.911550000000     0.272230000000     0.236200000000     0          
C        C      0.904195000000     0.293145000000     0.208220000000     0          
C        C      0.905970000000     0.322320000000     0.206120000000     0          
C        C      0.915040000000     0.330575000000     0.232040000000     0          
C        C      0.919965000000     0.359065000000     0.227540000000     0          
C        C      0.914160000000     0.380810000000     0.198160000000     0          
C        C      0.906395000000     0.372245000000     0.172220000000     0          
C        C      0.901575000000     0.344325000000     0.175900000000     0          
C        C      0.799360000000     0.343310000000     0.472960000000     0          
C        C      0.793125000000     0.323745000000     0.456220000000     0          
C        C      0.814445000000     0.319445000000     0.426020000000     0          
C        C      0.841960000000     0.334710000000     0.412560000000     0          
C        C      0.848210000000     0.354275000000     0.429300000000     0          
C        C      0.826925000000     0.358575000000     0.459500000000     0          
C        C      0.986505000000     0.364355000000     0.450380000000     0          
C        C      0.954435000000     0.339935000000     0.371460000000     0          
C        C      0.945155000000     0.364205000000     0.381780000000     0          
C        C      0.955000000000     0.371800000000     0.407600000000     0          
C        C      0.974120000000     0.355020000000     0.423120000000     0          
C        C      0.983375000000     0.330745000000     0.412820000000     0          
C        C      0.973555000000     0.323205000000     0.386980000000     0          
C        C      0.888090000000     0.457440000000     0.049840000000     0          
C        C      0.927380000000     0.315180000000     0.291880000000     0          
C        C      0.956580000000     0.317630000000     0.289480000000     0          
C        C      0.964615000000     0.325930000000     0.316080000000     0          
C        C      0.943425000000     0.331875000000     0.345100000000     0          
C        C      0.914220000000     0.329470000000     0.347520000000     0          
C        C      0.906190000000     0.321125000000     0.320900000000     0          
C        C      0.876425000000     0.317575000000     0.325100000000     0          
C        C      0.855705000000     0.323305000000     0.352780000000     0          
C        C      0.864235000000     0.330635000000     0.379660000000     0          
C        C      0.892540000000     0.332440000000     0.377840000000     0          
C        C      0.506650000000     0.316150000000     0.255400000000     0          
C        C      0.526300000000     0.315000000000     0.216400000000     0          
C        C      0.913850000000     0.227900000000     0.299800000000     0          
C        C      0.914750000000     0.202800000000     0.332600000000     0          
C        C      0.778425000000     0.034775000000     0.140100000000     0          
C        C      0.769925000000     0.014560000000     0.125760000000     0          
C        C      0.789975000000     0.007375000000     0.096900000000     0          
C        C      0.818555000000     0.020405000000     0.082380000000     0          
C        C      0.827060000000     0.040620000000     0.096720000000     0          
C        C      0.807005000000     0.047805000000     0.125580000000     0          
C        C      0.822775000000     0.196825000000     0.096700000000     0          
C        C      0.764205000000     0.128055000000     0.180180000000     0          
C        C      0.793810000000     0.124555000000     0.171560000000     0          
C        C      0.814265000000     0.147705000000     0.146780000000     0          
C        C      0.805140000000     0.174340000000     0.130640000000     0          
C        C      0.775535000000     0.177800000000     0.139260000000     0          
C        C      0.755080000000     0.154645000000     0.164020000000     0          
C        C      0.724460000000     0.398860000000     0.501360000000     0          
C        C      0.697595000000     0.060295000000     0.260020000000     0          
C        C      0.698325000000     0.088425000000     0.262100000000     0          
C        C      0.720350000000     0.109670000000     0.236200000000     0          
C        C      0.741695000000     0.102745000000     0.208220000000     0          
C        C      0.740970000000     0.074620000000     0.206120000000     0          
C        C      0.718940000000     0.053405000000     0.232040000000     0          
C        C      0.716265000000     0.027165000000     0.227540000000     0          
C        C      0.736760000000     0.020110000000     0.198160000000     0          
C        C      0.757495000000     0.041645000000     0.172220000000     0          
C        C      0.760475000000     0.067725000000     0.175900000000     0          
C        C      0.714160000000     0.420210000000     0.472960000000     0          
C        C      0.728765000000     0.448145000000     0.456220000000     0          
C        C      0.722545000000     0.467545000000     0.426020000000     0          
C        C      0.701760000000     0.459010000000     0.412560000000     0          
C        C      0.687140000000     0.431075000000     0.429300000000     0          
C        C      0.693325000000     0.411675000000     0.459500000000     0          
C        C      0.538305000000     0.410455000000     0.450380000000     0          
C        C      0.609835000000     0.474335000000     0.371460000000     0          
C        C      0.613955000000     0.444905000000     0.381780000000     0          
C        C      0.591200000000     0.424400000000     0.407600000000     0          
C        C      0.564320000000     0.433420000000     0.423120000000     0          
C        C      0.560215000000     0.462845000000     0.412820000000     0          
C        C      0.582955000000     0.483305000000     0.386980000000     0          
C        C      0.836990000000     0.017640000000     0.049840000000     0          
C        C      0.676680000000     0.038880000000     0.291880000000     0          
C        C      0.648680000000     0.037630000000     0.289480000000     0          
C        C      0.627345000000     0.016030000000     0.316080000000     0          
C        C      0.634025000000     0.495575000000     0.345100000000     0          
C        C      0.662020000000     0.496770000000     0.347520000000     0          
C        C      0.683360000000     0.018425000000     0.320900000000     0          
C        C      0.711025000000     0.019875000000     0.325100000000     0          
C        C      0.717905000000     0.000305000000     0.352780000000     0          
C        C      0.695935000000     0.479535000000     0.379660000000     0          
C        C      0.668540000000     0.478640000000     0.377840000000     0          
C        C      0.615650000000     0.056150000000     0.255400000000     0          
C        C      0.615500000000     0.076800000000     0.216400000000     0          
C        C      0.686250000000     0.122200000000     0.299800000000     0          
C        C      0.668950000000     0.130900000000     0.332600000000     0          
C        C      0.895175000000     0.278425000000     0.640100000000     0          
C        C      0.922560000000     0.269925000000     0.625760000000     0          
C        C      0.944175000000     0.289975000000     0.596900000000     0          
C        C      0.938405000000     0.318555000000     0.582380000000     0          
C        C      0.911020000000     0.327060000000     0.596720000000     0          
C        C      0.889405000000     0.307005000000     0.625580000000     0          
C        C      0.754825000000     0.322775000000     0.596700000000     0          
C        C      0.781855000000     0.264205000000     0.680180000000     0          
C        C      0.789665000000     0.293810000000     0.671560000000     0          
C        C      0.778905000000     0.314265000000     0.646780000000     0          
C        C      0.760340000000     0.305140000000     0.630640000000     0          
C        C      0.752570000000     0.275535000000     0.639260000000     0          
C        C      0.763345000000     0.255080000000     0.664020000000     0          
C        C      0.850460000000     0.224460000000     0.001360000000     0          
C        C      0.809695000000     0.197595000000     0.760020000000     0          
C        C      0.780525000000     0.198325000000     0.762100000000     0          
C        C      0.772230000000     0.220350000000     0.736200000000     0          
C        C      0.793145000000     0.241695000000     0.708220000000     0          
C        C      0.822320000000     0.240970000000     0.706120000000     0          
C        C      0.830575000000     0.218940000000     0.732040000000     0          
C        C      0.859065000000     0.216265000000     0.727540000000     0          
C        C      0.880810000000     0.236760000000     0.698160000000     0          
C        C      0.872245000000     0.257495000000     0.672220000000     0          
C        C      0.844325000000     0.260475000000     0.675900000000     0          
C        C      0.843310000000     0.214160000000     0.972960000000     0          
C        C      0.823745000000     0.228765000000     0.956220000000     0          
C        C      0.819445000000     0.222545000000     0.926020000000     0          
C        C      0.834710000000     0.201760000000     0.912560000000     0          
C        C      0.854275000000     0.187140000000     0.929300000000     0          
C        C      0.858575000000     0.193325000000     0.959500000000     0          
C        C      0.864355000000     0.038305000000     0.950380000000     0          
C        C      0.839935000000     0.109835000000     0.871460000000     0          
C        C      0.864205000000     0.113955000000     0.881780000000     0          
C        C      0.871800000000     0.091200000000     0.907600000000     0          
C        C      0.855020000000     0.064320000000     0.923120000000     0          
C        C      0.830745000000     0.060215000000     0.912820000000     0          
C        C      0.823205000000     0.082955000000     0.886980000000     0          
C        C      0.957440000000     0.336990000000     0.549840000000     0          
C        C      0.815180000000     0.176680000000     0.791880000000     0          
C        C      0.817630000000     0.148680000000     0.789480000000     0          
C        C      0.825930000000     0.127345000000     0.816080000000     0          
C        C      0.831875000000     0.134025000000     0.845100000000     0          
C        C      0.829470000000     0.162020000000     0.847520000000     0          
C        C      0.821125000000     0.183360000000     0.820900000000     0          
C        C      0.817575000000     0.211025000000     0.825100000000     0          
C        C      0.823305000000     0.217905000000     0.852780000000     0          
C        C      0.830635000000     0.195935000000     0.879660000000     0          
C        C      0.832440000000     0.168540000000     0.877840000000     0          
C        C      0.816150000000     0.115650000000     0.755400000000     0          
C        C      0.815000000000     0.115500000000     0.716400000000     0          
C        C      0.727900000000     0.186250000000     0.799800000000     0          
C        C      0.702800000000     0.168950000000     0.832600000000     0          
C        C      0.534775000000     0.401525000000     0.640100000000     0          
C        C      0.514560000000     0.417195000000     0.625760000000     0          
C        C      0.507375000000     0.411575000000     0.596900000000     0          
C        C      0.520405000000     0.390255000000     0.582380000000     0          
C        C      0.540620000000     0.374580000000     0.596720000000     0          
C        C      0.547805000000     0.380205000000     0.625580000000     0          
C        C      0.696825000000     0.378875000000     0.596700000000     0          
C        C      0.628055000000     0.395705000000     0.680180000000     0          
C        C      0.624555000000     0.370410000000     0.671560000000     0          
C        C      0.647705000000     0.362345000000     0.646780000000     0          
C        C      0.674340000000     0.379540000000     0.630640000000     0          
C        C      0.677800000000     0.404835000000     0.639260000000     0          
C        C      0.654645000000     0.412910000000     0.664020000000     0          
C        C      0.898860000000     0.274860000000     0.001360000000     0          
C        C      0.560295000000     0.422395000000     0.760020000000     0          
C        C      0.588425000000     0.420625000000     0.762100000000     0          
C        C      0.609670000000     0.411550000000     0.736200000000     0          
C        C      0.602745000000     0.404195000000     0.708220000000     0          
C        C      0.574620000000     0.405970000000     0.706120000000     0          
C        C      0.553405000000     0.415040000000     0.732040000000     0          
C        C      0.527165000000     0.419965000000     0.727540000000     0          
C        C      0.520110000000     0.414160000000     0.698160000000     0          
C        C      0.541645000000     0.406395000000     0.672220000000     0          
C        C      0.567725000000     0.401575000000     0.675900000000     0          
C        C      0.920210000000     0.299360000000     0.972960000000     0          
C        C      0.948145000000     0.293125000000     0.956220000000     0          
C        C      0.967545000000     0.314445000000     0.926020000000     0          
C        C      0.959010000000     0.341960000000     0.912560000000     0          
C        C      0.931075000000     0.348210000000     0.929300000000     0          
C        C      0.911675000000     0.326925000000     0.959500000000     0          
C        C      0.910455000000     0.486505000000     0.950380000000     0          
C        C      0.974335000000     0.454435000000     0.871460000000     0          
C        C      0.944905000000     0.445155000000     0.881780000000     0          
C        C      0.924400000000     0.455000000000     0.907600000000     0          
C        C      0.933420000000     0.474120000000     0.923120000000     0          
C        C      0.962845000000     0.483375000000     0.912820000000     0          
C        C      0.983305000000     0.473555000000     0.886980000000     0          
C        C      0.517640000000     0.388090000000     0.549840000000     0          
C        C      0.538880000000     0.427380000000     0.791880000000     0          
C        C      0.537630000000     0.456580000000     0.789480000000     0          
C        C      0.516030000000     0.464615000000     0.816080000000     0          
C        C      0.995575000000     0.443425000000     0.845100000000     0          
C        C      0.996770000000     0.414220000000     0.847520000000     0          
C        C      0.518425000000     0.406190000000     0.820900000000     0          
C        C      0.519875000000     0.376425000000     0.825100000000     0          
C        C      0.500305000000     0.355705000000     0.852780000000     0          
C        C      0.979535000000     0.364235000000     0.879660000000     0          
C        C      0.978640000000     0.392540000000     0.877840000000     0          
C        C      0.556150000000     0.006650000000     0.755400000000     0          
C        C      0.576800000000     0.026300000000     0.716400000000     0          
C        C      0.622200000000     0.413850000000     0.799800000000     0          
C        C      0.630900000000     0.414750000000     0.832600000000     0          
O        O      0.888505000000     0.234305000000     0.088580000000     0          
O        O      0.751365000000     0.336015000000     0.511740000000     0          
O        O      0.900530000000     0.484930000000     0.038680000000     0          
O        O      0.503860000000     0.347560000000     0.461760000000     0          
O        O      0.974425000000     0.382975000000     0.461300000000     0          
O        O      0.866395000000     0.454295000000     0.037020000000     0          
O        O      0.853615000000     0.263595000000     0.089740000000     0          
O        O      0.782955000000     0.368255000000     0.512780000000     0          
O        O      0.923290000000     0.258990000000     0.292640000000     0          
O        O      0.975265000000     0.312565000000     0.259740000000     0          
O        O      0.817205000000     0.221405000000     0.088580000000     0          
O        O      0.742765000000     0.408115000000     0.511740000000     0          
O        O      0.830130000000     0.495730000000     0.038680000000     0          
O        O      0.515260000000     0.421560000000     0.461760000000     0          
O        O      0.544925000000     0.386375000000     0.461300000000     0          
O        O      0.865095000000     0.027195000000     0.037020000000     0          
O        O      0.851515000000     0.191535000000     0.089740000000     0          
O        O      0.710655000000     0.375355000000     0.512780000000     0          
O        O      0.680390000000     0.094690000000     0.292640000000     0          
O        O      0.644865000000     0.057565000000     0.259740000000     0          
O        O      0.734305000000     0.317205000000     0.588580000000     0          
O        O      0.836015000000     0.242765000000     0.011740000000     0          
O        O      0.984930000000     0.330130000000     0.538680000000     0          
O        O      0.847560000000     0.015260000000     0.961760000000     0          
O        O      0.882975000000     0.044925000000     0.961300000000     0          
O        O      0.954295000000     0.365095000000     0.537020000000     0          
O        O      0.763595000000     0.351515000000     0.589740000000     0          
O        O      0.868255000000     0.210655000000     0.012780000000     0          
O        O      0.758990000000     0.180390000000     0.792640000000     0          
O        O      0.812565000000     0.144865000000     0.759740000000     0          
O        O      0.721405000000     0.388505000000     0.588580000000     0          
O        O      0.908115000000     0.251365000000     0.011740000000     0          
O        O      0.995730000000     0.400530000000     0.538680000000     0          
O        O      0.921560000000     0.003860000000     0.961760000000     0          
O        O      0.886375000000     0.474425000000     0.961300000000     0          
O        O      0.527195000000     0.366395000000     0.537020000000     0          
O        O      0.691535000000     0.353615000000     0.589740000000     0          
O        O      0.875355000000     0.282955000000     0.012780000000     0          
O        O      0.594690000000     0.423290000000     0.792640000000     0          
O        O      0.557565000000     0.475265000000     0.759740000000     0          
Cu       Cu     0.617940000000     0.780795000000     0.948100000000     0          
Cu       Cu     0.604885000000     0.982380000000     0.000240000000     0          
Cu       Cu     0.658010000000     0.745155000000     0.948100000000     0          
Cu       Cu     0.644995000000     0.517500000000     0.000240000000     0          
Cu       Cu     0.780795000000     0.658010000000     0.448100000000     0          
Cu       Cu     0.982380000000     0.644995000000     0.500240000000     0          
Cu       Cu     0.745155000000     0.617940000000     0.448100000000     0          
Cu       Cu     0.517500000000     0.604885000000     0.500240000000     0          
H        H      0.568750000000     0.573650000000     0.864600000000     0          
H        H      0.578050000000     0.537750000000     0.912600000000     0          
H        H      0.639500000000     0.592800000000     0.912800000000     0          
H        H      0.630150000000     0.628650000000     0.865000000000     0          
H        H      0.640900000000     0.698100000000     0.817800000000     0          
H        H      0.654300000000     0.715950000000     0.859000000000     0          
H        H      0.583850000000     0.759650000000     0.871400000000     0          
H        H      0.570450000000     0.741850000000     0.830200000000     0          
H        H      0.589600000000     0.747000000000     0.762400000000     0          
H        H      0.572850000000     0.635600000000     0.756200000000     0          
H        H      0.584500000000     0.599900000000     0.803400000000     0          
H        H      0.604700000000     0.660650000000     0.841400000000     0          
H        H      0.725000000000     0.686300000000     0.535000000000     0          
H        H      0.689700000000     0.693450000000     0.585000000000     0          
H        H      0.633600000000     0.635600000000     0.579600000000     0          
H        H      0.669000000000     0.628550000000     0.529400000000     0          
H        H      0.567450000000     0.624750000000     0.628400000000     0          
H        H      0.551100000000     0.612200000000     0.585600000000     0          
H        H      0.504000000000     0.680300000000     0.577000000000     0          
H        H      0.520350000000     0.692850000000     0.619800000000     0          
H        H      0.516100000000     0.672450000000     0.685600000000     0          
H        H      0.629050000000     0.688900000000     0.691600000000     0          
H        H      0.663500000000     0.677550000000     0.646000000000     0          
H        H      0.602550000000     0.664300000000     0.603000000000     0          
H        H      0.988750000000     0.665550000000     0.742000000000     0          
H        H      0.989250000000     0.699000000000     0.725200000000     0          
H        H      0.953850000000     0.681250000000     0.786200000000     0          
H        H      0.976950000000     0.703700000000     0.785400000000     0          
H        H      0.978500000000     0.670700000000     0.802800000000     0          
H        H      0.605950000000     0.772600000000     0.700000000000     0          
H        H      0.575100000000     0.776700000000     0.722000000000     0          
H        H      0.594800000000     0.814300000000     0.667400000000     0          
H        H      0.565600000000     0.800100000000     0.669000000000     0          
H        H      0.594800000000     0.793200000000     0.645000000000     0          
H        H      0.748950000000     0.994050000000     0.864600000000     0          
H        H      0.715650000000     0.505950000000     0.912600000000     0          
H        H      0.654100000000     0.950800000000     0.912800000000     0          
H        H      0.687350000000     0.938850000000     0.865000000000     0          
H        H      0.700200000000     0.893000000000     0.817800000000     0          
H        H      0.666200000000     0.854550000000     0.859000000000     0          
H        H      0.730450000000     0.804650000000     0.871400000000     0          
H        H      0.764450000000     0.843050000000     0.830200000000     0          
H        H      0.779200000000     0.871800000000     0.762400000000     0          
H        H      0.799050000000     0.986300000000     0.756200000000     0          
H        H      0.763800000000     0.998400000000     0.803400000000     0          
H        H      0.724600000000     0.918650000000     0.841400000000     0          
H        H      0.757500000000     0.546200000000     0.535000000000     0          
H        H      0.767800000000     0.514050000000     0.585000000000     0          
H        H      0.826600000000     0.574600000000     0.579600000000     0          
H        H      0.816300000000     0.606750000000     0.529400000000     0          
H        H      0.868350000000     0.561050000000     0.628400000000     0          
H        H      0.906100000000     0.595000000000     0.585600000000     0          
H        H      0.957500000000     0.531200000000     0.577000000000     0          
H        H      0.919750000000     0.997250000000     0.619800000000     0          
H        H      0.891100000000     0.984750000000     0.685600000000     0          
H        H      0.775150000000     0.965300000000     0.691600000000     0          
H        H      0.763500000000     0.999450000000     0.646000000000     0          
H        H      0.845950000000     0.534200000000     0.603000000000     0          
H        H      0.890250000000     0.963450000000     0.742000000000     0          
H        H      0.898150000000     0.938400000000     0.725200000000     0          
H        H      0.903050000000     0.925650000000     0.786200000000     0          
H        H      0.880350000000     0.903600000000     0.785400000000     0          
H        H      0.870100000000     0.927900000000     0.802800000000     0          
H        H      0.794050000000     0.877400000000     0.700000000000     0          
H        H      0.813900000000     0.862300000000     0.722000000000     0          
H        H      0.821500000000     0.852000000000     0.667400000000     0          
H        H      0.849900000000     0.865400000000     0.669000000000     0          
H        H      0.832700000000     0.884300000000     0.645000000000     0          
H        H      0.573650000000     0.748950000000     0.364600000000     0          
H        H      0.537750000000     0.715650000000     0.412600000000     0          
H        H      0.592800000000     0.654100000000     0.412800000000     0          
H        H      0.628650000000     0.687350000000     0.365000000000     0          
H        H      0.698100000000     0.700200000000     0.317800000000     0          
H        H      0.715950000000     0.666200000000     0.359000000000     0          
H        H      0.759650000000     0.730450000000     0.371400000000     0          
H        H      0.741850000000     0.764450000000     0.330200000000     0          
H        H      0.747000000000     0.779200000000     0.262400000000     0          
H        H      0.635600000000     0.799050000000     0.256200000000     0          
H        H      0.599900000000     0.763800000000     0.303400000000     0          
H        H      0.660650000000     0.724600000000     0.341400000000     0          
H        H      0.686300000000     0.757500000000     0.035000000000     0          
H        H      0.693450000000     0.767800000000     0.085000000000     0          
H        H      0.635600000000     0.826600000000     0.079600000000     0          
H        H      0.628550000000     0.816300000000     0.029400000000     0          
H        H      0.624750000000     0.868350000000     0.128400000000     0          
H        H      0.612200000000     0.906100000000     0.085600000000     0          
H        H      0.680300000000     0.957500000000     0.077000000000     0          
H        H      0.692850000000     0.919750000000     0.119800000000     0          
H        H      0.672450000000     0.891100000000     0.185600000000     0          
H        H      0.688900000000     0.775150000000     0.191600000000     0          
H        H      0.677550000000     0.763500000000     0.146000000000     0          
H        H      0.664300000000     0.845950000000     0.103000000000     0          
H        H      0.665550000000     0.890250000000     0.242000000000     0          
H        H      0.699000000000     0.898150000000     0.225200000000     0          
H        H      0.681250000000     0.903050000000     0.286200000000     0          
H        H      0.703700000000     0.880350000000     0.285400000000     0          
H        H      0.670700000000     0.870100000000     0.302800000000     0          
H        H      0.772600000000     0.794050000000     0.200000000000     0          
H        H      0.776700000000     0.813900000000     0.222000000000     0          
H        H      0.814300000000     0.821500000000     0.167400000000     0          
H        H      0.800100000000     0.849900000000     0.169000000000     0          
H        H      0.793200000000     0.832700000000     0.145000000000     0          
H        H      0.994050000000     0.568750000000     0.364600000000     0          
H        H      0.505950000000     0.578050000000     0.412600000000     0          
H        H      0.950800000000     0.639500000000     0.412800000000     0          
H        H      0.938850000000     0.630150000000     0.365000000000     0          
H        H      0.893000000000     0.640900000000     0.317800000000     0          
H        H      0.854550000000     0.654300000000     0.359000000000     0          
H        H      0.804650000000     0.583850000000     0.371400000000     0          
H        H      0.843050000000     0.570450000000     0.330200000000     0          
H        H      0.871800000000     0.589600000000     0.262400000000     0          
H        H      0.986300000000     0.572850000000     0.256200000000     0          
H        H      0.998400000000     0.584500000000     0.303400000000     0          
H        H      0.918650000000     0.604700000000     0.341400000000     0          
H        H      0.546200000000     0.725000000000     0.035000000000     0          
H        H      0.514050000000     0.689700000000     0.085000000000     0          
H        H      0.574600000000     0.633600000000     0.079600000000     0          
H        H      0.606750000000     0.669000000000     0.029400000000     0          
H        H      0.561050000000     0.567450000000     0.128400000000     0          
H        H      0.595000000000     0.551100000000     0.085600000000     0          
H        H      0.531200000000     0.504000000000     0.077000000000     0          
H        H      0.997250000000     0.520350000000     0.119800000000     0          
H        H      0.984750000000     0.516100000000     0.185600000000     0          
H        H      0.965300000000     0.629050000000     0.191600000000     0          
H        H      0.999450000000     0.663500000000     0.146000000000     0          
H        H      0.534200000000     0.602550000000     0.103000000000     0          
H        H      0.963450000000     0.988750000000     0.242000000000     0          
H        H      0.938400000000     0.989250000000     0.225200000000     0          
H        H      0.925650000000     0.953850000000     0.286200000000     0          
H        H      0.903600000000     0.976950000000     0.285400000000     0          
H        H      0.927900000000     0.978500000000     0.302800000000     0          
H        H      0.877400000000     0.605950000000     0.200000000000     0          
H        H      0.862300000000     0.575100000000     0.222000000000     0          
H        H      0.852000000000     0.594800000000     0.167400000000     0          
H        H      0.865400000000     0.565600000000     0.169000000000     0          
H        H      0.884300000000     0.594800000000     0.145000000000     0          
C        C      0.598475000000     0.604825000000     0.859900000000     0          
C        C      0.582805000000     0.577440000000     0.874240000000     0          
C        C      0.588425000000     0.555825000000     0.903100000000     0          
C        C      0.609745000000     0.561595000000     0.917620000000     0          
C        C      0.625420000000     0.588980000000     0.903280000000     0          
C        C      0.619795000000     0.610595000000     0.874420000000     0          
C        C      0.621125000000     0.745175000000     0.903300000000     0          
C        C      0.604295000000     0.718145000000     0.819820000000     0          
C        C      0.629590000000     0.710335000000     0.828440000000     0          
C        C      0.637655000000     0.721095000000     0.853220000000     0          
C        C      0.620460000000     0.739660000000     0.869360000000     0          
C        C      0.595165000000     0.747430000000     0.860740000000     0          
C        C      0.587090000000     0.736655000000     0.835980000000     0          
C        C      0.725140000000     0.649540000000     0.498640000000     0          
C        C      0.577605000000     0.690305000000     0.739980000000     0          
C        C      0.579375000000     0.719475000000     0.737900000000     0          
C        C      0.588450000000     0.727770000000     0.763800000000     0          
C        C      0.595805000000     0.706855000000     0.791780000000     0          
C        C      0.594030000000     0.677680000000     0.793880000000     0          
C        C      0.584960000000     0.669425000000     0.767960000000     0          
C        C      0.580035000000     0.640935000000     0.772460000000     0          
C        C      0.585840000000     0.619190000000     0.801840000000     0          
C        C      0.593605000000     0.627755000000     0.827780000000     0          
C        C      0.598425000000     0.655675000000     0.824100000000     0          
C        C      0.700640000000     0.656690000000     0.527040000000     0          
C        C      0.706875000000     0.676255000000     0.543780000000     0          
C        C      0.685555000000     0.680555000000     0.573980000000     0          
C        C      0.658040000000     0.665290000000     0.587440000000     0          
C        C      0.651790000000     0.645725000000     0.570700000000     0          
C        C      0.673075000000     0.641425000000     0.540500000000     0          
C        C      0.513495000000     0.635645000000     0.549620000000     0          
C        C      0.545565000000     0.660065000000     0.628540000000     0          
C        C      0.554845000000     0.635795000000     0.618220000000     0          
C        C      0.545000000000     0.628200000000     0.592400000000     0          
C        C      0.525880000000     0.644980000000     0.576880000000     0          
C        C      0.516625000000     0.669255000000     0.587180000000     0          
C        C      0.526445000000     0.676795000000     0.613020000000     0          
C        C      0.611910000000     0.542560000000     0.950160000000     0          
C        C      0.572620000000     0.684820000000     0.708120000000     0          
C        C      0.543420000000     0.682370000000     0.710520000000     0          
C        C      0.535385000000     0.674070000000     0.683920000000     0          
C        C      0.556575000000     0.668125000000     0.654900000000     0          
C        C      0.585780000000     0.670530000000     0.652480000000     0          
C        C      0.593810000000     0.678875000000     0.679100000000     0          
C        C      0.623575000000     0.682425000000     0.674900000000     0          
C        C      0.644295000000     0.676695000000     0.647220000000     0          
C        C      0.635765000000     0.669365000000     0.620340000000     0          
C        C      0.607460000000     0.667560000000     0.622160000000     0          
C        C      0.993350000000     0.683850000000     0.744600000000     0          
C        C      0.973700000000     0.685000000000     0.783600000000     0          
C        C      0.586150000000     0.772100000000     0.700200000000     0          
C        C      0.585250000000     0.797200000000     0.667400000000     0          
C        C      0.721575000000     0.965225000000     0.859900000000     0          
C        C      0.730075000000     0.985440000000     0.874240000000     0          
C        C      0.710025000000     0.992625000000     0.903100000000     0          
C        C      0.681445000000     0.979595000000     0.917620000000     0          
C        C      0.672940000000     0.959380000000     0.903280000000     0          
C        C      0.692995000000     0.952195000000     0.874420000000     0          
C        C      0.677225000000     0.803175000000     0.903300000000     0          
C        C      0.735795000000     0.871945000000     0.819820000000     0          
C        C      0.706190000000     0.875445000000     0.828440000000     0          
C        C      0.685735000000     0.852295000000     0.853220000000     0          
C        C      0.694860000000     0.825660000000     0.869360000000     0          
C        C      0.724465000000     0.822200000000     0.860740000000     0          
C        C      0.744920000000     0.845355000000     0.835980000000     0          
C        C      0.775540000000     0.601140000000     0.498640000000     0          
C        C      0.802405000000     0.939705000000     0.739980000000     0          
C        C      0.801675000000     0.911575000000     0.737900000000     0          
C        C      0.779650000000     0.890330000000     0.763800000000     0          
C        C      0.758305000000     0.897255000000     0.791780000000     0          
C        C      0.759030000000     0.925380000000     0.793880000000     0          
C        C      0.781060000000     0.946595000000     0.767960000000     0          
C        C      0.783735000000     0.972835000000     0.772460000000     0          
C        C      0.763240000000     0.979890000000     0.801840000000     0          
C        C      0.742505000000     0.958355000000     0.827780000000     0          
C        C      0.739525000000     0.932275000000     0.824100000000     0          
C        C      0.785840000000     0.579790000000     0.527040000000     0          
C        C      0.771235000000     0.551855000000     0.543780000000     0          
C        C      0.777455000000     0.532455000000     0.573980000000     0          
C        C      0.798240000000     0.540990000000     0.587440000000     0          
C        C      0.812860000000     0.568925000000     0.570700000000     0          
C        C      0.806675000000     0.588325000000     0.540500000000     0          
C        C      0.961695000000     0.589545000000     0.549620000000     0          
C        C      0.890165000000     0.525665000000     0.628540000000     0          
C        C      0.886045000000     0.555095000000     0.618220000000     0          
C        C      0.908800000000     0.575600000000     0.592400000000     0          
C        C      0.935680000000     0.566580000000     0.576880000000     0          
C        C      0.939785000000     0.537155000000     0.587180000000     0          
C        C      0.917045000000     0.516695000000     0.613020000000     0          
C        C      0.663010000000     0.982360000000     0.950160000000     0          
C        C      0.823320000000     0.961120000000     0.708120000000     0          
C        C      0.851320000000     0.962370000000     0.710520000000     0          
C        C      0.872655000000     0.983970000000     0.683920000000     0          
C        C      0.865975000000     0.504425000000     0.654900000000     0          
C        C      0.837980000000     0.503230000000     0.652480000000     0          
C        C      0.816640000000     0.981575000000     0.679100000000     0          
C        C      0.788975000000     0.980125000000     0.674900000000     0          
C        C      0.782095000000     0.999695000000     0.647220000000     0          
C        C      0.804065000000     0.520465000000     0.620340000000     0          
C        C      0.831460000000     0.521360000000     0.622160000000     0          
C        C      0.884350000000     0.943850000000     0.744600000000     0          
C        C      0.884500000000     0.923200000000     0.783600000000     0          
C        C      0.813750000000     0.877800000000     0.700200000000     0          
C        C      0.831050000000     0.869100000000     0.667400000000     0          
C        C      0.604825000000     0.721575000000     0.359900000000     0          
C        C      0.577440000000     0.730075000000     0.374240000000     0          
C        C      0.555825000000     0.710025000000     0.403100000000     0          
C        C      0.561595000000     0.681445000000     0.417620000000     0          
C        C      0.588980000000     0.672940000000     0.403280000000     0          
C        C      0.610595000000     0.692995000000     0.374420000000     0          
C        C      0.745175000000     0.677225000000     0.403300000000     0          
C        C      0.718145000000     0.735795000000     0.319820000000     0          
C        C      0.710335000000     0.706190000000     0.328440000000     0          
C        C      0.721095000000     0.685735000000     0.353220000000     0          
C        C      0.739660000000     0.694860000000     0.369360000000     0          
C        C      0.747430000000     0.724465000000     0.360740000000     0          
C        C      0.736655000000     0.744920000000     0.335980000000     0          
C        C      0.649540000000     0.775540000000     0.998640000000     0          
C        C      0.690305000000     0.802405000000     0.239980000000     0          
C        C      0.719475000000     0.801675000000     0.237900000000     0          
C        C      0.727770000000     0.779650000000     0.263800000000     0          
C        C      0.706855000000     0.758305000000     0.291780000000     0          
C        C      0.677680000000     0.759030000000     0.293880000000     0          
C        C      0.669425000000     0.781060000000     0.267960000000     0          
C        C      0.640935000000     0.783735000000     0.272460000000     0          
C        C      0.619190000000     0.763240000000     0.301840000000     0          
C        C      0.627755000000     0.742505000000     0.327780000000     0          
C        C      0.655675000000     0.739525000000     0.324100000000     0          
C        C      0.656690000000     0.785840000000     0.027040000000     0          
C        C      0.676255000000     0.771235000000     0.043780000000     0          
C        C      0.680555000000     0.777455000000     0.073980000000     0          
C        C      0.665290000000     0.798240000000     0.087440000000     0          
C        C      0.645725000000     0.812860000000     0.070700000000     0          
C        C      0.641425000000     0.806675000000     0.040500000000     0          
C        C      0.635645000000     0.961695000000     0.049620000000     0          
C        C      0.660065000000     0.890165000000     0.128540000000     0          
C        C      0.635795000000     0.886045000000     0.118220000000     0          
C        C      0.628200000000     0.908800000000     0.092400000000     0          
C        C      0.644980000000     0.935680000000     0.076880000000     0          
C        C      0.669255000000     0.939785000000     0.087180000000     0          
C        C      0.676795000000     0.917045000000     0.113020000000     0          
C        C      0.542560000000     0.663010000000     0.450160000000     0          
C        C      0.684820000000     0.823320000000     0.208120000000     0          
C        C      0.682370000000     0.851320000000     0.210520000000     0          
C        C      0.674070000000     0.872655000000     0.183920000000     0          
C        C      0.668125000000     0.865975000000     0.154900000000     0          
C        C      0.670530000000     0.837980000000     0.152480000000     0          
C        C      0.678875000000     0.816640000000     0.179100000000     0          
C        C      0.682425000000     0.788975000000     0.174900000000     0          
C        C      0.676695000000     0.782095000000     0.147220000000     0          
C        C      0.669365000000     0.804065000000     0.120340000000     0          
C        C      0.667560000000     0.831460000000     0.122160000000     0          
C        C      0.683850000000     0.884350000000     0.244600000000     0          
C        C      0.685000000000     0.884500000000     0.283600000000     0          
C        C      0.772100000000     0.813750000000     0.200200000000     0          
C        C      0.797200000000     0.831050000000     0.167400000000     0          
C        C      0.965225000000     0.598475000000     0.359900000000     0          
C        C      0.985440000000     0.582805000000     0.374240000000     0          
C        C      0.992625000000     0.588425000000     0.403100000000     0          
C        C      0.979595000000     0.609745000000     0.417620000000     0          
C        C      0.959380000000     0.625420000000     0.403280000000     0          
C        C      0.952195000000     0.619795000000     0.374420000000     0          
C        C      0.803175000000     0.621125000000     0.403300000000     0          
C        C      0.871945000000     0.604295000000     0.319820000000     0          
C        C      0.875445000000     0.629590000000     0.328440000000     0          
C        C      0.852295000000     0.637655000000     0.353220000000     0          
C        C      0.825660000000     0.620460000000     0.369360000000     0          
C        C      0.822200000000     0.595165000000     0.360740000000     0          
C        C      0.845355000000     0.587090000000     0.335980000000     0          
C        C      0.601140000000     0.725140000000     0.998640000000     0          
C        C      0.939705000000     0.577605000000     0.239980000000     0          
C        C      0.911575000000     0.579375000000     0.237900000000     0          
C        C      0.890330000000     0.588450000000     0.263800000000     0          
C        C      0.897255000000     0.595805000000     0.291780000000     0          
C        C      0.925380000000     0.594030000000     0.293880000000     0          
C        C      0.946595000000     0.584960000000     0.267960000000     0          
C        C      0.972835000000     0.580035000000     0.272460000000     0          
C        C      0.979890000000     0.585840000000     0.301840000000     0          
C        C      0.958355000000     0.593605000000     0.327780000000     0          
C        C      0.932275000000     0.598425000000     0.324100000000     0          
C        C      0.579790000000     0.700640000000     0.027040000000     0          
C        C      0.551855000000     0.706875000000     0.043780000000     0          
C        C      0.532455000000     0.685555000000     0.073980000000     0          
C        C      0.540990000000     0.658040000000     0.087440000000     0          
C        C      0.568925000000     0.651790000000     0.070700000000     0          
C        C      0.588325000000     0.673075000000     0.040500000000     0          
C        C      0.589545000000     0.513495000000     0.049620000000     0          
C        C      0.525665000000     0.545565000000     0.128540000000     0          
C        C      0.555095000000     0.554845000000     0.118220000000     0          
C        C      0.575600000000     0.545000000000     0.092400000000     0          
C        C      0.566580000000     0.525880000000     0.076880000000     0          
C        C      0.537155000000     0.516625000000     0.087180000000     0          
C        C      0.516695000000     0.526445000000     0.113020000000     0          
C        C      0.982360000000     0.611910000000     0.450160000000     0          
C        C      0.961120000000     0.572620000000     0.208120000000     0          
C        C      0.962370000000     0.543420000000     0.210520000000     0          
C        C      0.983970000000     0.535385000000     0.183920000000     0          
C        C      0.504425000000     0.556575000000     0.154900000000     0          
C        C      0.503230000000     0.585780000000     0.152480000000     0          
C        C      0.981575000000     0.593810000000     0.179100000000     0          
C        C      0.980125000000     0.623575000000     0.174900000000     0          
C        C      0.999695000000     0.644295000000     0.147220000000     0          
C        C      0.520465000000     0.635765000000     0.120340000000     0          
C        C      0.521360000000     0.607460000000     0.122160000000     0          
C        C      0.943850000000     0.993350000000     0.244600000000     0          
C        C      0.923200000000     0.973700000000     0.283600000000     0          
C        C      0.877800000000     0.586150000000     0.200200000000     0          
C        C      0.869100000000     0.585250000000     0.167400000000     0          
O        O      0.611495000000     0.765695000000     0.911420000000     0          
O        O      0.748635000000     0.663985000000     0.488260000000     0          
O        O      0.599470000000     0.515070000000     0.961320000000     0          
O        O      0.996140000000     0.652440000000     0.538240000000     0          
O        O      0.525575000000     0.617025000000     0.538700000000     0          
O        O      0.633605000000     0.545705000000     0.962980000000     0          
O        O      0.646385000000     0.736405000000     0.910260000000     0          
O        O      0.717045000000     0.631745000000     0.487220000000     0          
O        O      0.576710000000     0.741010000000     0.707360000000     0          
O        O      0.524735000000     0.687435000000     0.740260000000     0          
O        O      0.682795000000     0.778595000000     0.911420000000     0          
O        O      0.757235000000     0.591885000000     0.488260000000     0          
O        O      0.669870000000     0.504270000000     0.961320000000     0          
O        O      0.984740000000     0.578440000000     0.538240000000     0          
O        O      0.955075000000     0.613625000000     0.538700000000     0          
O        O      0.634905000000     0.972805000000     0.962980000000     0          
O        O      0.648485000000     0.808465000000     0.910260000000     0          
O        O      0.789345000000     0.624645000000     0.487220000000     0          
O        O      0.819610000000     0.905310000000     0.707360000000     0          
O        O      0.855135000000     0.942435000000     0.740260000000     0          
O        O      0.765695000000     0.682795000000     0.411420000000     0          
O        O      0.663985000000     0.757235000000     0.988260000000     0          
O        O      0.515070000000     0.669870000000     0.461320000000     0          
O        O      0.652440000000     0.984740000000     0.038240000000     0          
O        O      0.617025000000     0.955075000000     0.038700000000     0          
O        O      0.545705000000     0.634905000000     0.462980000000     0          
O        O      0.736405000000     0.648485000000     0.410260000000     0          
O        O      0.631745000000     0.789345000000     0.987220000000     0          
O        O      0.741010000000     0.819610000000     0.207360000000     0          
O        O      0.687435000000     0.855135000000     0.240260000000     0          
O        O      0.778595000000     0.611495000000     0.411420000000     0          
O        O      0.591885000000     0.748635000000     0.988260000000     0          
O        O      0.504270000000     0.599470000000     0.461320000000     0          
O        O      0.578440000000     0.996140000000     0.038240000000     0          
O        O      0.613625000000     0.525575000000     0.038700000000     0          
O        O      0.972805000000     0.633605000000     0.462980000000     0          
O        O      0.808465000000     0.646385000000     0.410260000000     0          
O        O      0.624645000000     0.717045000000     0.987220000000     0          
O        O      0.905310000000     0.576710000000     0.207360000000     0          
O        O      0.942435000000     0.524735000000     0.240260000000     0          
Cu       Cu     0.882060000000     0.719205000000     0.051900000000     0          
Cu       Cu     0.895115000000     0.517620000000     0.999760000000     0          
Cu       Cu     0.841990000000     0.754845000000     0.051900000000     0          
Cu       Cu     0.855005000000     0.982500000000     0.999760000000     0          
Cu       Cu     0.719205000000     0.841990000000     0.551900000000     0          
Cu       Cu     0.517620000000     0.855005000000     0.499760000000     0          
Cu       Cu     0.754845000000     0.882060000000     0.551900000000     0          
Cu       Cu     0.982500000000     0.895115000000     0.499760000000     0          
H        H      0.931250000000     0.926350000000     0.135400000000     0          
H        H      0.921950000000     0.962250000000     0.087400000000     0          
H        H      0.860500000000     0.907200000000     0.087200000000     0          
H        H      0.869850000000     0.871350000000     0.135000000000     0          
H        H      0.859100000000     0.801900000000     0.182200000000     0          
H        H      0.845700000000     0.784050000000     0.141000000000     0          
H        H      0.916150000000     0.740350000000     0.128600000000     0          
H        H      0.929550000000     0.758150000000     0.169800000000     0          
H        H      0.910400000000     0.753000000000     0.237600000000     0          
H        H      0.927150000000     0.864400000000     0.243800000000     0          
H        H      0.915500000000     0.900100000000     0.196600000000     0          
H        H      0.895300000000     0.839350000000     0.158600000000     0          
H        H      0.775000000000     0.813700000000     0.465000000000     0          
H        H      0.810300000000     0.806550000000     0.415000000000     0          
H        H      0.866400000000     0.864400000000     0.420400000000     0          
H        H      0.831000000000     0.871450000000     0.470600000000     0          
H        H      0.932550000000     0.875250000000     0.371600000000     0          
H        H      0.948900000000     0.887800000000     0.414400000000     0          
H        H      0.996000000000     0.819700000000     0.423000000000     0          
H        H      0.979650000000     0.807150000000     0.380200000000     0          
H        H      0.983900000000     0.827550000000     0.314400000000     0          
H        H      0.870950000000     0.811100000000     0.308400000000     0          
H        H      0.836500000000     0.822450000000     0.354000000000     0          
H        H      0.897450000000     0.835700000000     0.397000000000     0          
H        H      0.511250000000     0.834450000000     0.258000000000     0          
H        H      0.510750000000     0.801000000000     0.274800000000     0          
H        H      0.546150000000     0.818750000000     0.213800000000     0          
H        H      0.523050000000     0.796300000000     0.214600000000     0          
H        H      0.521500000000     0.829300000000     0.197200000000     0          
H        H      0.894050000000     0.727400000000     0.300000000000     0          
H        H      0.924900000000     0.723300000000     0.278000000000     0          
H        H      0.905200000000     0.685700000000     0.332600000000     0          
H        H      0.934400000000     0.699900000000     0.331000000000     0          
H        H      0.905200000000     0.706800000000     0.355000000000     0          
H        H      0.751050000000     0.505950000000     0.135400000000     0          
H        H      0.784350000000     0.994050000000     0.087400000000     0          
H        H      0.845900000000     0.549200000000     0.087200000000     0          
H        H      0.812650000000     0.561150000000     0.135000000000     0          
H        H      0.799800000000     0.607000000000     0.182200000000     0          
H        H      0.833800000000     0.645450000000     0.141000000000     0          
H        H      0.769550000000     0.695350000000     0.128600000000     0          
H        H      0.735550000000     0.656950000000     0.169800000000     0          
H        H      0.720800000000     0.628200000000     0.237600000000     0          
H        H      0.700950000000     0.513700000000     0.243800000000     0          
H        H      0.736200000000     0.501600000000     0.196600000000     0          
H        H      0.775400000000     0.581350000000     0.158600000000     0          
H        H      0.742500000000     0.953800000000     0.465000000000     0          
H        H      0.732200000000     0.985950000000     0.415000000000     0          
H        H      0.673400000000     0.925400000000     0.420400000000     0          
H        H      0.683700000000     0.893250000000     0.470600000000     0          
H        H      0.631650000000     0.938950000000     0.371600000000     0          
H        H      0.593900000000     0.905000000000     0.414400000000     0          
H        H      0.542500000000     0.968800000000     0.423000000000     0          
H        H      0.580250000000     0.502750000000     0.380200000000     0          
H        H      0.608900000000     0.515250000000     0.314400000000     0          
H        H      0.724850000000     0.534700000000     0.308400000000     0          
H        H      0.736500000000     0.500550000000     0.354000000000     0          
H        H      0.654050000000     0.965800000000     0.397000000000     0          
H        H      0.609750000000     0.536550000000     0.258000000000     0          
H        H      0.601850000000     0.561600000000     0.274800000000     0          
H        H      0.596950000000     0.574350000000     0.213800000000     0          
H        H      0.619650000000     0.596400000000     0.214600000000     0          
H        H      0.629900000000     0.572100000000     0.197200000000     0          
H        H      0.705950000000     0.622600000000     0.300000000000     0          
H        H      0.686100000000     0.637700000000     0.278000000000     0          
H        H      0.678500000000     0.648000000000     0.332600000000     0          
H        H      0.650100000000     0.634600000000     0.331000000000     0          
H        H      0.667300000000     0.615700000000     0.355000000000     0          
H        H      0.926350000000     0.751050000000     0.635400000000     0          
H        H      0.962250000000     0.784350000000     0.587400000000     0          
H        H      0.907200000000     0.845900000000     0.587200000000     0          
H        H      0.871350000000     0.812650000000     0.635000000000     0          
H        H      0.801900000000     0.799800000000     0.682200000000     0          
H        H      0.784050000000     0.833800000000     0.641000000000     0          
H        H      0.740350000000     0.769550000000     0.628600000000     0          
H        H      0.758150000000     0.735550000000     0.669800000000     0          
H        H      0.753000000000     0.720800000000     0.737600000000     0          
H        H      0.864400000000     0.700950000000     0.743800000000     0          
H        H      0.900100000000     0.736200000000     0.696600000000     0          
H        H      0.839350000000     0.775400000000     0.658600000000     0          
H        H      0.813700000000     0.742500000000     0.965000000000     0          
H        H      0.806550000000     0.732200000000     0.915000000000     0          
H        H      0.864400000000     0.673400000000     0.920400000000     0          
H        H      0.871450000000     0.683700000000     0.970600000000     0          
H        H      0.875250000000     0.631650000000     0.871600000000     0          
H        H      0.887800000000     0.593900000000     0.914400000000     0          
H        H      0.819700000000     0.542500000000     0.923000000000     0          
H        H      0.807150000000     0.580250000000     0.880200000000     0          
H        H      0.827550000000     0.608900000000     0.814400000000     0          
H        H      0.811100000000     0.724850000000     0.808400000000     0          
H        H      0.822450000000     0.736500000000     0.854000000000     0          
H        H      0.835700000000     0.654050000000     0.897000000000     0          
H        H      0.834450000000     0.609750000000     0.758000000000     0          
H        H      0.801000000000     0.601850000000     0.774800000000     0          
H        H      0.818750000000     0.596950000000     0.713800000000     0          
H        H      0.796300000000     0.619650000000     0.714600000000     0          
H        H      0.829300000000     0.629900000000     0.697200000000     0          
H        H      0.727400000000     0.705950000000     0.800000000000     0          
H        H      0.723300000000     0.686100000000     0.778000000000     0          
H        H      0.685700000000     0.678500000000     0.832600000000     0          
H        H      0.699900000000     0.650100000000     0.831000000000     0          
H        H      0.706800000000     0.667300000000     0.855000000000     0          
H        H      0.505950000000     0.931250000000     0.635400000000     0          
H        H      0.994050000000     0.921950000000     0.587400000000     0          
H        H      0.549200000000     0.860500000000     0.587200000000     0          
H        H      0.561150000000     0.869850000000     0.635000000000     0          
H        H      0.607000000000     0.859100000000     0.682200000000     0          
H        H      0.645450000000     0.845700000000     0.641000000000     0          
H        H      0.695350000000     0.916150000000     0.628600000000     0          
H        H      0.656950000000     0.929550000000     0.669800000000     0          
H        H      0.628200000000     0.910400000000     0.737600000000     0          
H        H      0.513700000000     0.927150000000     0.743800000000     0          
H        H      0.501600000000     0.915500000000     0.696600000000     0          
H        H      0.581350000000     0.895300000000     0.658600000000     0          
H        H      0.953800000000     0.775000000000     0.965000000000     0          
H        H      0.985950000000     0.810300000000     0.915000000000     0          
H        H      0.925400000000     0.866400000000     0.920400000000     0          
H        H      0.893250000000     0.831000000000     0.970600000000     0          
H        H      0.938950000000     0.932550000000     0.871600000000     0          
H        H      0.905000000000     0.948900000000     0.914400000000     0          
H        H      0.968800000000     0.996000000000     0.923000000000     0          
H        H      0.502750000000     0.979650000000     0.880200000000     0          
H        H      0.515250000000     0.983900000000     0.814400000000     0          
H        H      0.534700000000     0.870950000000     0.808400000000     0          
H        H      0.500550000000     0.836500000000     0.854000000000     0          
H        H      0.965800000000     0.897450000000     0.897000000000     0          
H        H      0.536550000000     0.511250000000     0.758000000000     0          
H        H      0.561600000000     0.510750000000     0.774800000000     0          
H        H      0.574350000000     0.546150000000     0.713800000000     0          
H        H      0.596400000000     0.523050000000     0.714600000000     0          
H        H      0.572100000000     0.521500000000     0.697200000000     0          
H        H      0.622600000000     0.894050000000     0.800000000000     0          
H        H      0.637700000000     0.924900000000     0.778000000000     0          
H        H      0.648000000000     0.905200000000     0.832600000000     0          
H        H      0.634600000000     0.934400000000     0.831000000000     0          
H        H      0.615700000000     0.905200000000     0.855000000000     0          
C        C      0.901525000000     0.895175000000     0.140100000000     0          
C        C      0.917195000000     0.922560000000     0.125760000000     0          
C        C      0.911575000000     0.944175000000     0.096900000000     0          
C        C      0.890255000000     0.938405000000     0.082380000000     0          
C        C      0.874580000000     0.911020000000     0.096720000000     0          
C        C      0.880205000000     0.889405000000     0.125580000000     0          
C        C      0.878875000000     0.754825000000     0.096700000000     0          
C        C      0.895705000000     0.781855000000     0.180180000000     0          
C        C      0.870410000000     0.789665000000     0.171560000000     0          
C        C      0.862345000000     0.778905000000     0.146780000000     0          
C        C      0.879540000000     0.760340000000     0.130640000000     0          
C        C      0.904835000000     0.752570000000     0.139260000000     0          
C        C      0.912910000000     0.763345000000     0.164020000000     0          
C        C      0.774860000000     0.850460000000     0.501360000000     0          
C        C      0.922395000000     0.809695000000     0.260020000000     0          
C        C      0.920625000000     0.780525000000     0.262100000000     0          
C        C      0.911550000000     0.772230000000     0.236200000000     0          
C        C      0.904195000000     0.793145000000     0.208220000000     0          
C        C      0.905970000000     0.822320000000     0.206120000000     0          
C        C      0.915040000000     0.830575000000     0.232040000000     0          
C        C      0.919965000000     0.859065000000     0.227540000000     0          
C        C      0.914160000000     0.880810000000     0.198160000000     0          
C        C      0.906395000000     0.872245000000     0.172220000000     0          
C        C      0.901575000000     0.844325000000     0.175900000000     0          
C        C      0.799360000000     0.843310000000     0.472960000000     0          
C        C      0.793125000000     0.823745000000     0.456220000000     0          
C        C      0.814445000000     0.819445000000     0.426020000000     0          
C        C      0.841960000000     0.834710000000     0.412560000000     0          
C        C      0.848210000000     0.854275000000     0.429300000000     0          
C        C      0.826925000000     0.858575000000     0.459500000000     0          
C        C      0.986505000000     0.864355000000     0.450380000000     0          
C        C      0.954435000000     0.839935000000     0.371460000000     0          
C        C      0.945155000000     0.864205000000     0.381780000000     0          
C        C      0.955000000000     0.871800000000     0.407600000000     0          
C        C      0.974120000000     0.855020000000     0.423120000000     0          
C        C      0.983375000000     0.830745000000     0.412820000000     0          
C        C      0.973555000000     0.823205000000     0.386980000000     0          
C        C      0.888090000000     0.957440000000     0.049840000000     0          
C        C      0.927380000000     0.815180000000     0.291880000000     0          
C        C      0.956580000000     0.817630000000     0.289480000000     0          
C        C      0.964615000000     0.825930000000     0.316080000000     0          
C        C      0.943425000000     0.831875000000     0.345100000000     0          
C        C      0.914220000000     0.829470000000     0.347520000000     0          
C        C      0.906190000000     0.821125000000     0.320900000000     0          
C        C      0.876425000000     0.817575000000     0.325100000000     0          
C        C      0.855705000000     0.823305000000     0.352780000000     0          
C        C      0.864235000000     0.830635000000     0.379660000000     0          
C        C      0.892540000000     0.832440000000     0.377840000000     0          
C        C      0.506650000000     0.816150000000     0.255400000000     0          
C        C      0.526300000000     0.815000000000     0.216400000000     0          
C        C      0.913850000000     0.727900000000     0.299800000000     0          
C        C      0.914750000000     0.702800000000     0.332600000000     0          
C        C      0.778425000000     0.534775000000     0.140100000000     0          
C        C      0.769925000000     0.514560000000     0.125760000000     0          
C        C      0.789975000000     0.507375000000     0.096900000000     0          
C        C      0.818555000000     0.520405000000     0.082380000000     0          
C        C      0.827060000000     0.540620000000     0.096720000000     0          
C        C      0.807005000000     0.547805000000     0.125580000000     0          
C        C      0.822775000000     0.696825000000     0.096700000000     0          
C        C      0.764205000000     0.628055000000     0.180180000000     0          
C        C      0.793810000000     0.624555000000     0.171560000000     0          
C        C      0.814265000000     0.647705000000     0.146780000000     0          
C        C      0.805140000000     0.674340000000     0.130640000000     0          
C        C      0.775535000000     0.677800000000     0.139260000000     0          
C        C      0.755080000000     0.654645000000     0.164020000000     0          
C        C      0.724460000000     0.898860000000     0.501360000000     0          
C        C      0.697595000000     0.560295000000     0.260020000000     0          
C        C      0.698325000000     0.588425000000     0.262100000000     0          
C        C      0.720350000000     0.609670000000     0.236200000000     0          
C        C      0.741695000000     0.602745000000     0.208220000000     0          
C        C      0.740970000000     0.574620000000     0.206120000000     0          
C        C      0.718940000000     0.553405000000     0.232040000000     0          
C        C      0.716265000000     0.527165000000     0.227540000000     0          
C        C      0.736760000000     0.520110000000     0.198160000000     0          
C        C      0.757495000000     0.541645000000     0.172220000000     0          
C        C      0.760475000000     0.567725000000     0.175900000000     0          
C        C      0.714160000000     0.920210000000     0.472960000000     0          
C        C      0.728765000000     0.948145000000     0.456220000000     0          
C        C      0.722545000000     0.967545000000     0.426020000000     0          
C        C      0.701760000000     0.959010000000     0.412560000000     0          
C        C      0.687140000000     0.931075000000     0.429300000000     0          
C        C      0.693325000000     0.911675000000     0.459500000000     0          
C        C      0.538305000000     0.910455000000     0.450380000000     0          
C        C      0.609835000000     0.974335000000     0.371460000000     0          
C        C      0.613955000000     0.944905000000     0.381780000000     0          
C        C      0.591200000000     0.924400000000     0.407600000000     0          
C        C      0.564320000000     0.933420000000     0.423120000000     0          
C        C      0.560215000000     0.962845000000     0.412820000000     0          
C        C      0.582955000000     0.983305000000     0.386980000000     0          
C        C      0.836990000000     0.517640000000     0.049840000000     0          
C        C      0.676680000000     0.538880000000     0.291880000000     0          
C        C      0.648680000000     0.537630000000     0.289480000000     0          
C        C      0.627345000000     0.516030000000     0.316080000000     0          
C        C      0.634025000000     0.995575000000     0.345100000000     0          
C        C      0.662020000000     0.996770000000     0.347520000000     0          
C        C      0.683360000000     0.518425000000     0.320900000000     0          
C        C      0.711025000000     0.519875000000     0.325100000000     0          
C        C      0.717905000000     0.500305000000     0.352780000000     0          
C        C      0.695935000000     0.979535000000     0.379660000000     0          
C        C      0.668540000000     0.978640000000     0.377840000000     0          
C        C      0.615650000000     0.556150000000     0.255400000000     0          
C        C      0.615500000000     0.576800000000     0.216400000000     0          
C        C      0.686250000000     0.622200000000     0.299800000000     0          
C        C      0.668950000000     0.630900000000     0.332600000000     0          
C        C      0.895175000000     0.778425000000     0.640100000000     0          
C        C      0.922560000000     0.769925000000     0.625760000000     0          
C        C      0.944175000000     0.789975000000     0.596900000000     0          
C        C      0.938405000000     0.818555000000     0.582380000000     0          
C        C      0.911020000000     0.827060000000     0.596720000000     0          
C        C      0.889405000000     0.807005000000     0.625580000000     0          
C        C      0.754825000000     0.822775000000     0.596700000000     0          
C        C      0.781855000000     0.764205000000     0.680180000000     0          
C        C      0.789665000000     0.793810000000     0.671560000000     0          
C        C      0.778905000000     0.814265000000     0.646780000000     0          
C        C      0.760340000000     0.805140000000     0.630640000000     0          
C        C      0.752570000000     0.775535000000     0.639260000000     0          
C        C      0.763345000000     0.755080000000     0.664020000000     0          
C        C      0.850460000000     0.724460000000     0.001360000000     0          
C        C      0.809695000000     0.697595000000     0.760020000000     0          
C        C      0.780525000000     0.698325000000     0.762100000000     0          
C        C      0.772230000000     0.720350000000     0.736200000000     0          
C        C      0.793145000000     0.741695000000     0.708220000000     0          
C        C      0.822320000000     0.740970000000     0.706120000000     0          
C        C      0.830575000000     0.718940000000     0.732040000000     0          
C        C      0.859065000000     0.716265000000     0.727540000000     0          
C        C      0.880810000000     0.736760000000     0.698160000000     0          
C        C      0.872245000000     0.757495000000     0.672220000000     0          
C        C      0.844325000000     0.760475000000     0.675900000000     0          
C        C      0.843310000000     0.714160000000     0.972960000000     0          
C        C      0.823745000000     0.728765000000     0.956220000000     0          
C        C      0.819445000000     0.722545000000     0.926020000000     0          
C        C      0.834710000000     0.701760000000     0.912560000000     0          
C        C      0.854275000000     0.687140000000     0.929300000000     0          
C        C      0.858575000000     0.693325000000     0.959500000000     0          
C        C      0.864355000000     0.538305000000     0.950380000000     0          
C        C      0.839935000000     0.609835000000     0.871460000000     0          
C        C      0.864205000000     0.613955000000     0.881780000000     0          
C        C      0.871800000000     0.591200000000     0.907600000000     0          
C        C      0.855020000000     0.564320000000     0.923120000000     0          
C        C      0.830745000000     0.560215000000     0.912820000000     0          
C        C      0.823205000000     0.582955000000     0.886980000000     0          
C        C      0.957440000000     0.836990000000     0.549840000000     0          
C        C      0.815180000000     0.676680000000     0.791880000000     0          
C        C      0.817630000000     0.648680000000     0.789480000000     0          
C        C      0.825930000000     0.627345000000     0.816080000000     0          
C        C      0.831875000000     0.634025000000     0.845100000000     0          
C        C      0.829470000000     0.662020000000     0.847520000000     0          
C        C      0.821125000000     0.683360000000     0.820900000000     0          
C        C      0.817575000000     0.711025000000     0.825100000000     0          
C        C      0.823305000000     0.717905000000     0.852780000000     0          
C        C      0.830635000000     0.695935000000     0.879660000000     0          
C        C      0.832440000000     0.668540000000     0.877840000000     0          
C        C      0.816150000000     0.615650000000     0.755400000000     0          
C        C      0.815000000000     0.615500000000     0.716400000000     0          
C        C      0.727900000000     0.686250000000     0.799800000000     0          
C        C      0.702800000000     0.668950000000     0.832600000000     0          
C        C      0.534775000000     0.901525000000     0.640100000000     0          
C        C      0.514560000000     0.917195000000     0.625760000000     0          
C        C      0.507375000000     0.911575000000     0.596900000000     0          
C        C      0.520405000000     0.890255000000     0.582380000000     0          
C        C      0.540620000000     0.874580000000     0.596720000000     0          
C        C      0.547805000000     0.880205000000     0.625580000000     0          
C        C      0.696825000000     0.878875000000     0.596700000000     0          
C        C      0.628055000000     0.895705000000     0.680180000000     0          
C        C      0.624555000000     0.870410000000     0.671560000000     0          
C        C      0.647705000000     0.862345000000     0.646780000000     0          
C        C      0.674340000000     0.879540000000     0.630640000000     0          
C        C      0.677800000000     0.904835000000     0.639260000000     0          
C        C      0.654645000000     0.912910000000     0.664020000000     0          
C        C      0.898860000000     0.774860000000     0.001360000000     0          
C        C      0.560295000000     0.922395000000     0.760020000000     0          
C        C      0.588425000000     0.920625000000     0.762100000000     0          
C        C      0.609670000000     0.911550000000     0.736200000000     0          
C        C      0.602745000000     0.904195000000     0.708220000000     0          
C        C      0.574620000000     0.905970000000     0.706120000000     0          
C        C      0.553405000000     0.915040000000     0.732040000000     0          
C        C      0.527165000000     0.919965000000     0.727540000000     0          
C        C      0.520110000000     0.914160000000     0.698160000000     0          
C        C      0.541645000000     0.906395000000     0.672220000000     0          
C        C      0.567725000000     0.901575000000     0.675900000000     0          
C        C      0.920210000000     0.799360000000     0.972960000000     0          
C        C      0.948145000000     0.793125000000     0.956220000000     0          
C        C      0.967545000000     0.814445000000     0.926020000000     0          
C        C      0.959010000000     0.841960000000     0.912560000000     0          
C        C      0.931075000000     0.848210000000     0.929300000000     0          
C        C      0.911675000000     0.826925000000     0.959500000000     0          
C        C      0.910455000000     0.986505000000     0.950380000000     0          
C        C      0.974335000000     0.954435000000     0.871460000000     0          
C        C      0.944905000000     0.945155000000     0.881780000000     0          
C        C      0.924400000000     0.955000000000     0.907600000000     0          
C        C      0.933420000000     0.974120000000     0.923120000000     0          
C        C      0.962845000000     0.983375000000     0.912820000000     0          
C        C      0.983305000000     0.973555000000     0.886980000000     0          
C        C      0.517640000000     0.888090000000     0.549840000000     0          
C        C      0.538880000000     0.927380000000     0.791880000000     0          
C        C      0.537630000000     0.956580000000     0.789480000000     0          
C        C      0.516030000000     0.964615000000     0.816080000000     0          
C        C      0.995575000000     0.943425000000     0.845100000000     0          
C        C      0.996770000000     0.914220000000     0.847520000000     0          
C        C      0.518425000000     0.906190000000     0.820900000000     0          
C        C      0.519875000000     0.876425000000     0.825100000000     0          
C        C      0.500305000000     0.855705000000     0.852780000000     0          
C        C      0.979535000000     0.864235000000     0.879660000000     0          
C        C      0.978640000000     0.892540000000     0.877840000000     0          
C        C      0.556150000000     0.506650000000     0.755400000000     0          
C        C      0.576800000000     0.526300000000     0.716400000000     0          
C        C      0.622200000000     0.913850000000     0.799800000000     0          
C        C      0.630900000000     0.914750000000     0.832600000000     0          
O        O      0.888505000000     0.734305000000     0.088580000000     0          
O        O      0.751365000000     0.836015000000     0.511740000000     0          
O        O      0.900530000000     0.984930000000     0.038680000000     0          
O        O      0.503860000000     0.847560000000     0.461760000000     0          
O        O      0.974425000000     0.882975000000     0.461300000000     0          
O        O      0.866395000000     0.954295000000     0.037020000000     0          
O        O      0.853615000000     0.763595000000     0.089740000000     0          
O        O      0.782955000000     0.868255000000     0.512780000000     0          
O        O      0.923290000000     0.758990000000     0.292640000000     0          
O        O      0.975265000000     0.812565000000     0.259740000000     0          
O        O      0.817205000000     0.721405000000     0.088580000000     0          
O        O      0.742765000000     0.908115000000     0.511740000000     0          
O        O      0.830130000000     0.995730000000     0.038680000000     0          
O        O      0.515260000000     0.921560000000     0.461760000000     0          
O        O      0.544925000000     0.886375000000     0.461300000000     0          
O        O      0.865095000000     0.527195000000     0.037020000000     0          
O        O      0.851515000000     0.691535000000     0.089740000000     0          
O        O      0.710655000000     0.875355000000     0.512780000000     0          
O        O      0.680390000000     0.594690000000     0.292640000000     0          
O        O      0.644865000000     0.557565000000     0.259740000000     0          
O        O      0.734305000000     0.817205000000     0.588580000000     0          
O        O      0.836015000000     0.742765000000     0.011740000000     0          
O        O      0.984930000000     0.830130000000     0.538680000000     0          
O        O      0.847560000000     0.515260000000     0.961760000000     0          
O        O      0.882975000000     0.544925000000     0.961300000000     0          
O        O      0.954295000000     0.865095000000     0.537020000000     0          
O        O      0.763595000000     0.851515000000     0.589740000000     0          
O        O      0.868255000000     0.710655000000     0.012780000000     0          
O        O      0.758990000000     0.680390000000     0.792640000000     0          
O        O      0.812565000000     0.644865000000     0.759740000000     0          
O        O      0.721405000000     0.888505000000     0.588580000000     0          
O        O      0.908115000000     0.751365000000     0.011740000000     0          
O        O      0.995730000000     0.900530000000     0.538680000000     0          
O        O      0.921560000000     0.503860000000     0.961760000000     0          
O        O      0.886375000000     0.974425000000     0.961300000000     0          
O        O      0.527195000000     0.866395000000     0.537020000000     0          
O        O      0.691535000000     0.853615000000     0.589740000000     0          
O        O      0.875355000000     0.782955000000     0.012780000000     0          
O        O      0.594690000000     0.923290000000     0.792640000000     0          
O        O      0.557565000000     0.975265000000     0.759740000000     0          


